New "Load.BT_295227377_M1" bus1="NODE#482978841.1.2" phases=1 conn=Delta model=2 kv=0.240000000 kw = 0.0 pf=0.92 status=variable vmaxpu=1.5 vminpu=0.92 daily="COM2_17_DU"  
New "Load.BT_295227377_M2" bus1="NODE#482978841.1.2" phases=1 conn=Delta model=3 kv=0.240000000 kw = 0.0 pf=0.92 status=variable vmaxpu=1.5 vminpu=0.92 daily="COM2_17_DU" 


New "Load.BT_324074522_1_M1" bus1="NODE#512410002.1.2.3" phases=3 conn=Delta model=2 kv=0.220000000 kw = 0.066497 pf=0.92 status=variable vmaxpu=1.5 vminpu=0.92 daily="RES1_7_DU"  
New "Load.BT_324074522_1_M2" bus1="NODE#512410002.1.2.3" phases=3 conn=Delta model=3 kv=0.220000000 kw = 0.066497 pf=0.92 status=variable vmaxpu=1.5 vminpu=0.92 daily="RES1_7_DU" 



New "Load.BT_295227924_M1" bus1="NODE#483015928.3" phases=1 conn=Wye model=2 kv=0.220000000 kw = 0.0 pf=0.92 status=variable vmaxpu=1.5 vminpu=0.92 daily="RES3_11_DU"  
New "Load.BT_295227924_M2" bus1="NODE#483015928.3" phases=1 conn=Wye model=3 kv=0.220000000 kw = 0.0 pf=0.92 status=variable vmaxpu=1.5 vminpu=0.92 daily="RES3_11_DU" 







New "Load.BT_295142007_1_M1" bus1="NODE#482826805.2" phases=1 conn=Wye model=2 kv=0.220000000 kw = 0.066497 pf=0.92 status=variable vmaxpu=1.5 vminpu=0.92 daily="RES1_7_DU"  
New "Load.BT_295142007_1_M2" bus1="NODE#482826805.2" phases=1 conn=Wye model=3 kv=0.220000000 kw = 0.066497 pf=0.92 status=variable vmaxpu=1.5 vminpu=0.92 daily="RES1_7_DU" 



New "Load.BT_324075093_1_M1" bus1="NODE#512430037.1.2.3" phases=3 conn=Delta model=2 kv=0.220000000 kw = 0.0 pf=0.92 status=variable vmaxpu=1.5 vminpu=0.92 daily="RES4_20_DU"  
New "Load.BT_324075093_1_M2" bus1="NODE#512430037.1.2.3" phases=3 conn=Delta model=3 kv=0.220000000 kw = 0.0 pf=0.92 status=variable vmaxpu=1.5 vminpu=0.92 daily="RES4_20_DU" 






New "Load.BT_295228633_M1" bus1="NODE#483053825.2.3" phases=1 conn=Delta model=2 kv=0.220000000 kw = 0.0 pf=0.92 status=variable vmaxpu=1.5 vminpu=0.92 daily="RES3_15_DU"  
New "Load.BT_295228633_M2" bus1="NODE#483053825.2.3" phases=1 conn=Delta model=3 kv=0.220000000 kw = 0.0 pf=0.92 status=variable vmaxpu=1.5 vminpu=0.92 daily="RES3_15_DU" 






New "Load.BT_324073151_1_M1" bus1="NODE#512390249.1.2.3" phases=3 conn=Delta model=2 kv=0.220000000 kw = 0.0 pf=0.92 status=variable vmaxpu=1.5 vminpu=0.92 daily="RES6_12_DU"  
New "Load.BT_324073151_1_M2" bus1="NODE#512390249.1.2.3" phases=3 conn=Delta model=3 kv=0.220000000 kw = 0.0 pf=0.92 status=variable vmaxpu=1.5 vminpu=0.92 daily="RES6_12_DU" 






New "Load.BT_295143506_1_M1" bus1="NODE#482868654.1.2" phases=1 conn=Delta model=2 kv=0.220000000 kw = 0.0802315 pf=0.92 status=variable vmaxpu=1.5 vminpu=0.92 daily="RES1_14_DU"  
New "Load.BT_295143506_1_M2" bus1="NODE#482868654.1.2" phases=1 conn=Delta model=3 kv=0.220000000 kw = 0.0802315 pf=0.92 status=variable vmaxpu=1.5 vminpu=0.92 daily="RES1_14_DU" 


New "Load.BT_295228171_M1" bus1="NODE#483017163.3" phases=1 conn=Wye model=2 kv=0.220000000 kw = 0.0 pf=0.92 status=variable vmaxpu=1.5 vminpu=0.92 daily="RES1_2_DU"  
New "Load.BT_295228171_M2" bus1="NODE#483017163.3" phases=1 conn=Wye model=3 kv=0.220000000 kw = 0.0 pf=0.92 status=variable vmaxpu=1.5 vminpu=0.92 daily="RES1_2_DU" 


New "Load.BT_324072989_1_M1" bus1="NODE#512389437.1.2.3" phases=3 conn=Delta model=2 kv=0.220000000 kw = 0.0 pf=0.92 status=variable vmaxpu=1.5 vminpu=0.92 daily="RES1_2_DU"  
New "Load.BT_324072989_1_M2" bus1="NODE#512389437.1.2.3" phases=3 conn=Delta model=3 kv=0.220000000 kw = 0.0 pf=0.92 status=variable vmaxpu=1.5 vminpu=0.92 daily="RES1_2_DU" 
New "Load.BT_295142007_2_M1" bus1="NODE#482826805.2" phases=1 conn=Wye model=2 kv=0.220000000 kw = 0.0383565 pf=0.92 status=variable vmaxpu=1.5 vminpu=0.92 daily="RES1_25_DU"  
New "Load.BT_295142007_2_M2" bus1="NODE#482826805.2" phases=1 conn=Wye model=3 kv=0.220000000 kw = 0.0383565 pf=0.92 status=variable vmaxpu=1.5 vminpu=0.92 daily="RES1_25_DU" 



New "Load.BT_300143606_M1" bus1="NODE#496477488.1" phases=1 conn=Wye model=2 kv=0.220000000 kw = 0.0802315 pf=0.92 status=variable vmaxpu=1.5 vminpu=0.92 daily="RES1_14_DU"  
New "Load.BT_300143606_M2" bus1="NODE#496477488.1" phases=1 conn=Wye model=3 kv=0.220000000 kw = 0.0802315 pf=0.92 status=variable vmaxpu=1.5 vminpu=0.92 daily="RES1_14_DU" 
New "Load.BT_ _1_M1" bus1="NODE#483017968.3" phases=1 conn=Wye model=2 kv=0.220000000 kw = 0.0 pf=0.92 status=variable vmaxpu=1.5 vminpu=0.92 daily="RES2_23_DU"  
New "Load.BT_ _1_M2" bus1="NODE#483017968.3" phases=1 conn=Wye model=3 kv=0.220000000 kw = 0.0 pf=0.92 status=variable vmaxpu=1.5 vminpu=0.92 daily="RES2_23_DU" 



New "Load.BT_324074700_1_M1" bus1="NODE#512410894.1.2.3" phases=3 conn=Delta model=2 kv=0.220000000 kw = 0.0383565 pf=0.92 status=variable vmaxpu=1.5 vminpu=0.92 daily="RES1_25_DU"  
New "Load.BT_324074700_1_M2" bus1="NODE#512410894.1.2.3" phases=3 conn=Delta model=3 kv=0.220000000 kw = 0.0383565 pf=0.92 status=variable vmaxpu=1.5 vminpu=0.92 daily="RES1_25_DU" 







New "Load.BT_299765578_M1" bus1="NODE#494887878.3" phases=1 conn=Wye model=2 kv=0.220000000 kw = 0.0 pf=0.92 status=variable vmaxpu=1.5 vminpu=0.92 daily="RES2_10_DU"  
New "Load.BT_299765578_M2" bus1="NODE#494887878.3" phases=1 conn=Wye model=3 kv=0.220000000 kw = 0.0 pf=0.92 status=variable vmaxpu=1.5 vminpu=0.92 daily="RES2_10_DU" 











New "Load.BT_ _2_M1" bus1="NODE#496371223.1" phases=1 conn=Wye model=2 kv=0.220000000 kw = 0.1333715 pf=0.92 status=variable vmaxpu=1.5 vminpu=0.92 daily="RES2_22_DU"  
New "Load.BT_ _2_M2" bus1="NODE#496371223.1" phases=1 conn=Wye model=3 kv=0.220000000 kw = 0.1333715 pf=0.92 status=variable vmaxpu=1.5 vminpu=0.92 daily="RES2_22_DU" 





New "Load.BT_300144469_1_M1" bus1="NODE#496550515.2" phases=1 conn=Wye model=2 kv=0.220000000 kw = 0.0 pf=0.92 status=variable vmaxpu=1.5 vminpu=0.92 daily="RES1_10_DU"  
New "Load.BT_300144469_1_M2" bus1="NODE#496550515.2" phases=1 conn=Wye model=3 kv=0.220000000 kw = 0.0 pf=0.92 status=variable vmaxpu=1.5 vminpu=0.92 daily="RES1_10_DU" 

New "Load.BT_295227798_M1" bus1="NODE#483015298.2" phases=1 conn=Wye model=2 kv=0.220000000 kw = 0.0 pf=0.92 status=variable vmaxpu=1.5 vminpu=0.92 daily="RES1_1_DU"  
New "Load.BT_295227798_M2" bus1="NODE#483015298.2" phases=1 conn=Wye model=3 kv=0.220000000 kw = 0.0 pf=0.92 status=variable vmaxpu=1.5 vminpu=0.92 daily="RES1_1_DU" 
New "Load.BT_295227806_1_M1" bus1="NODE#483015338.1.2.3" phases=3 conn=Delta model=2 kv=0.220000000 kw = 0.0656185 pf=0.92 status=variable vmaxpu=1.5 vminpu=0.92 daily="RES1_20_DU"  
New "Load.BT_295227806_1_M2" bus1="NODE#483015338.1.2.3" phases=3 conn=Delta model=3 kv=0.220000000 kw = 0.0656185 pf=0.92 status=variable vmaxpu=1.5 vminpu=0.92 daily="RES1_20_DU" 











New "Load.BT_295225717_1_M1" bus1="NODE#482897543.1.2.3" phases=3 conn=Delta model=2 kv=0.220000000 kw = 0.069216 pf=0.92 status=variable vmaxpu=1.5 vminpu=0.92 daily="COM1_23_DU"  
New "Load.BT_295225717_1_M2" bus1="NODE#482897543.1.2.3" phases=3 conn=Delta model=3 kv=0.220000000 kw = 0.069216 pf=0.92 status=variable vmaxpu=1.5 vminpu=0.92 daily="COM1_23_DU" 

New "Load.BT_1207425600_M1" bus1="NODE#1503250024.3.4" phases=1 conn=Wye model=2 kv=0.220000000 kw = 0.0656185 pf=0.92 status=variable vmaxpu=1.5 vminpu=0.92 daily="RES1_20_DU"  
New "Load.BT_1207425600_M2" bus1="NODE#1503250024.3.4" phases=1 conn=Wye model=3 kv=0.220000000 kw = 0.0656185 pf=0.92 status=variable vmaxpu=1.5 vminpu=0.92 daily="RES1_20_DU" 









New "Load.BT_295227900_M1" bus1="NODE#483015808.2" phases=1 conn=Wye model=2 kv=0.120000000 kw = 0.0 pf=0.92 status=variable vmaxpu=1.5 vminpu=0.92 daily="RES2_18_DU"  
New "Load.BT_295227900_M2" bus1="NODE#483015808.2" phases=1 conn=Wye model=3 kv=0.120000000 kw = 0.0 pf=0.92 status=variable vmaxpu=1.5 vminpu=0.92 daily="RES2_18_DU" 



New "Load.BT_2081619806_1_M1" bus1="NODE#2394072904.1.2.3.4" phases=3 conn=Delta model=2 kv=0.220000000 kw = 0.066497 pf=0.92 status=variable vmaxpu=1.5 vminpu=0.92 daily="RES1_7_DU"  
New "Load.BT_2081619806_1_M2" bus1="NODE#2394072904.1.2.3.4" phases=3 conn=Delta model=3 kv=0.220000000 kw = 0.066497 pf=0.92 status=variable vmaxpu=1.5 vminpu=0.92 daily="RES1_7_DU" 



New "Load.BT_295227814_1_M1" bus1="NODE#483015378.1.2.3" phases=3 conn=Delta model=2 kv=0.220000000 kw = 0.061287 pf=0.92 status=variable vmaxpu=1.5 vminpu=0.92 daily="RES1_22_DU"  
New "Load.BT_295227814_1_M2" bus1="NODE#483015378.1.2.3" phases=3 conn=Delta model=3 kv=0.220000000 kw = 0.061287 pf=0.92 status=variable vmaxpu=1.5 vminpu=0.92 daily="RES1_22_DU" 



New "Load.BT_ _3_M1" bus1="NODE#483053920.1.2" phases=1 conn=Delta model=2 kv=0.220000000 kw = 0.0 pf=0.92 status=variable vmaxpu=1.5 vminpu=0.92 daily="COM3_9_DU"  
New "Load.BT_ _3_M2" bus1="NODE#483053920.1.2" phases=1 conn=Delta model=3 kv=0.220000000 kw = 0.0 pf=0.92 status=variable vmaxpu=1.5 vminpu=0.92 daily="COM3_9_DU" 
New "Load.BT_295226233_M1" bus1="NODE#482938769.1.2.3" phases=3 conn=Delta model=2 kv=0.220000000 kw = 0.0 pf=0.92 status=variable vmaxpu=1.5 vminpu=0.92 daily="RES2_2_DU"  
New "Load.BT_295226233_M2" bus1="NODE#482938769.1.2.3" phases=3 conn=Delta model=3 kv=0.220000000 kw = 0.0 pf=0.92 status=variable vmaxpu=1.5 vminpu=0.92 daily="RES2_2_DU" 

New "Load.BT_299766255_1_M1" bus1="NODE#494891263.1.2" phases=1 conn=Delta model=2 kv=0.240000000 kw = 0.0 pf=0.92 status=variable vmaxpu=1.5 vminpu=0.92 daily="RES2_26_DU"  
New "Load.BT_299766255_1_M2" bus1="NODE#494891263.1.2" phases=1 conn=Delta model=3 kv=0.240000000 kw = 0.0 pf=0.92 status=variable vmaxpu=1.5 vminpu=0.92 daily="RES2_26_DU" 
New "Load.BT_295228054_1_M1" bus1="NODE#483016578.1.2" phases=1 conn=Delta model=2 kv=0.220000000 kw = 0.0 pf=0.92 status=variable vmaxpu=1.5 vminpu=0.92 daily="RES2_10_DU"  
New "Load.BT_295228054_1_M2" bus1="NODE#483016578.1.2" phases=1 conn=Delta model=3 kv=0.220000000 kw = 0.0 pf=0.92 status=variable vmaxpu=1.5 vminpu=0.92 daily="RES2_10_DU" 

New "Load.BT_299768350_M1" bus1="NODE#495374088.1" phases=1 conn=Wye model=2 kv=0.220000000 kw = 0.4167545 pf=0.92 status=variable vmaxpu=1.5 vminpu=0.92 daily="RES2_4_DU"  
New "Load.BT_299768350_M2" bus1="NODE#495374088.1" phases=1 conn=Wye model=3 kv=0.220000000 kw = 0.4167545 pf=0.92 status=variable vmaxpu=1.5 vminpu=0.92 daily="RES2_4_DU" 








New "Load.BT_295226533_1_M1" bus1="NODE#482940269.3.1" phases=1 conn=Delta model=2 kv=0.220000000 kw = 0.0 pf=0.92 status=variable vmaxpu=1.5 vminpu=0.92 daily="RES2_15_DU"  
New "Load.BT_295226533_1_M2" bus1="NODE#482940269.3.1" phases=1 conn=Delta model=3 kv=0.220000000 kw = 0.0 pf=0.92 status=variable vmaxpu=1.5 vminpu=0.92 daily="RES2_15_DU" 
















New "Load.BT_299955485_1_M1" bus1="NODE#495863207.1.2.3" phases=3 conn=Delta model=2 kv=0.220000000 kw = 0.0890585 pf=0.92 status=variable vmaxpu=1.5 vminpu=0.92 daily="RES1_2_DU"  
New "Load.BT_299955485_1_M2" bus1="NODE#495863207.1.2.3" phases=3 conn=Delta model=3 kv=0.220000000 kw = 0.0890585 pf=0.92 status=variable vmaxpu=1.5 vminpu=0.92 daily="RES1_2_DU" 
New "Load.BT_295142007_5_M1" bus1="NODE#482826805.2" phases=1 conn=Wye model=2 kv=0.220000000 kw = 0.034904 pf=0.92 status=variable vmaxpu=1.5 vminpu=0.92 daily="RES1_23_DU"  
New "Load.BT_295142007_5_M2" bus1="NODE#482826805.2" phases=1 conn=Wye model=3 kv=0.220000000 kw = 0.034904 pf=0.92 status=variable vmaxpu=1.5 vminpu=0.92 daily="RES1_23_DU" 




New "Load.BT_295431795_1_M1" bus1="NODE#483489947.1.2" phases=1 conn=Delta model=2 kv=0.220000000 kw = 0.0 pf=0.92 status=variable vmaxpu=1.5 vminpu=0.92 daily="RES1_1_DU"  
New "Load.BT_295431795_1_M2" bus1="NODE#483489947.1.2" phases=1 conn=Delta model=3 kv=0.220000000 kw = 0.0 pf=0.92 status=variable vmaxpu=1.5 vminpu=0.92 daily="RES1_1_DU" 






New "Load.BT_295227788_M1" bus1="NODE#483015248.3" phases=1 conn=Wye model=2 kv=0.220000000 kw = 0.0 pf=0.92 status=variable vmaxpu=1.5 vminpu=0.92 daily="COM1_21_DU"  
New "Load.BT_295227788_M2" bus1="NODE#483015248.3" phases=1 conn=Wye model=3 kv=0.220000000 kw = 0.0 pf=0.92 status=variable vmaxpu=1.5 vminpu=0.92 daily="COM1_21_DU" 
New "Load.BT_295227618_1_M1" bus1="NODE#482980046.1.2" phases=1 conn=Delta model=2 kv=0.240000000 kw = 0.066497 pf=0.92 status=variable vmaxpu=1.5 vminpu=0.92 daily="RES1_7_DU"  
New "Load.BT_295227618_1_M2" bus1="NODE#482980046.1.2" phases=1 conn=Delta model=3 kv=0.240000000 kw = 0.066497 pf=0.92 status=variable vmaxpu=1.5 vminpu=0.92 daily="RES1_7_DU" 



New "Load.BT_ _4_M1" bus1="NODE#482828702.1.2.3" phases=3 conn=Delta model=2 kv=0.220000000 kw = 0.0 pf=0.92 status=variable vmaxpu=1.5 vminpu=0.92 daily="COM3_11_DU"  
New "Load.BT_ _4_M2" bus1="NODE#482828702.1.2.3" phases=3 conn=Delta model=3 kv=0.220000000 kw = 0.0 pf=0.92 status=variable vmaxpu=1.5 vminpu=0.92 daily="COM3_11_DU" 


New "Load.BT_324074389_M1" bus1="NODE#512409337.1.2.3" phases=3 conn=Delta model=2 kv=0.220000000 kw = 0.0 pf=0.92 status=variable vmaxpu=1.5 vminpu=0.92 daily="RES5_17_DU"  
New "Load.BT_324074389_M2" bus1="NODE#512409337.1.2.3" phases=3 conn=Delta model=3 kv=0.220000000 kw = 0.0 pf=0.92 status=variable vmaxpu=1.5 vminpu=0.92 daily="RES5_17_DU" 





New "Load.BT_295228059_1_M1" bus1="NODE#483016603.1.2.3" phases=3 conn=Delta model=2 kv=0.220000000 kw = 0.0 pf=0.92 status=variable vmaxpu=1.5 vminpu=0.92 daily="RES2_2_DU"  
New "Load.BT_295228059_1_M2" bus1="NODE#483016603.1.2.3" phases=3 conn=Delta model=3 kv=0.220000000 kw = 0.0 pf=0.92 status=variable vmaxpu=1.5 vminpu=0.92 daily="RES2_2_DU" 
New "Load.BT_ _5_M1" bus1="NODE#464498517.1.2.3.4" phases=3 conn=Delta model=2 kv=0.220000000 kw = 2.5891115 pf=0.92 status=variable vmaxpu=1.5 vminpu=0.92 daily="COM1_10_DU"  
New "Load.BT_ _5_M2" bus1="NODE#464498517.1.2.3.4" phases=3 conn=Delta model=3 kv=0.220000000 kw = 2.5891115 pf=0.92 status=variable vmaxpu=1.5 vminpu=0.92 daily="COM1_10_DU" 



New "Load.BT_295227098_1_M1" bus1="NODE#482977446.2" phases=1 conn=Wye model=2 kv=0.220000000 kw = 0.0 pf=0.92 status=variable vmaxpu=1.5 vminpu=0.92 daily="RES2_1_DU"  
New "Load.BT_295227098_1_M2" bus1="NODE#482977446.2" phases=1 conn=Wye model=3 kv=0.220000000 kw = 0.0 pf=0.92 status=variable vmaxpu=1.5 vminpu=0.92 daily="RES2_1_DU" 


New "Load.BT_323836146_1_M1" bus1="NODE#512386070.1.2" phases=1 conn=Delta model=2 kv=0.220000000 kw = 0.1153825 pf=0.92 status=variable vmaxpu=1.5 vminpu=0.92 daily="RES1_8_DU"  
New "Load.BT_323836146_1_M2" bus1="NODE#512386070.1.2" phases=1 conn=Delta model=3 kv=0.220000000 kw = 0.1153825 pf=0.92 status=variable vmaxpu=1.5 vminpu=0.92 daily="RES1_8_DU" 
New "Load.BT_295228613_1_M1" bus1="NODE#483053725.2.3" phases=1 conn=Delta model=2 kv=0.220000000 kw = 0.0 pf=0.92 status=variable vmaxpu=1.5 vminpu=0.92 daily="RES3_19_DU"  
New "Load.BT_295228613_1_M2" bus1="NODE#483053725.2.3" phases=1 conn=Delta model=3 kv=0.220000000 kw = 0.0 pf=0.92 status=variable vmaxpu=1.5 vminpu=0.92 daily="RES3_19_DU" 

New "Load.BT_ _6_M1" bus1="NODE#494598840.1.2" phases=1 conn=Delta model=2 kv=0.240000000 kw = 0.2175925 pf=0.92 status=variable vmaxpu=1.5 vminpu=0.92 daily="RES1_24_DU"  
New "Load.BT_ _6_M2" bus1="NODE#494598840.1.2" phases=1 conn=Delta model=3 kv=0.240000000 kw = 0.2175925 pf=0.92 status=variable vmaxpu=1.5 vminpu=0.92 daily="RES1_24_DU" 


New "Load.BT_295227764_1_M1" bus1="NODE#483015128.1.2" phases=1 conn=Delta model=2 kv=0.240000000 kw = 0.0 pf=0.92 status=variable vmaxpu=1.5 vminpu=0.92 daily="RES1_11_DU"  
New "Load.BT_295227764_1_M2" bus1="NODE#483015128.1.2" phases=1 conn=Delta model=3 kv=0.240000000 kw = 0.0 pf=0.92 status=variable vmaxpu=1.5 vminpu=0.92 daily="RES1_11_DU" 






New "Load.BT_ _7_M1" bus1="NODE#483054855.2" phases=1 conn=Wye model=2 kv=0.220000000 kw = 0.0 pf=0.92 status=variable vmaxpu=1.5 vminpu=0.92 daily="RES2_14_DU"  
New "Load.BT_ _7_M2" bus1="NODE#483054855.2" phases=1 conn=Wye model=3 kv=0.220000000 kw = 0.0 pf=0.92 status=variable vmaxpu=1.5 vminpu=0.92 daily="RES2_14_DU" 




New "Load.BT_ _8_M1" bus1="NODE#482865719.2.3" phases=1 conn=Delta model=2 kv=0.220000000 kw = 0.234093 pf=0.92 status=variable vmaxpu=1.5 vminpu=0.92 daily="RES2_14_DU"  
New "Load.BT_ _8_M2" bus1="NODE#482865719.2.3" phases=1 conn=Delta model=3 kv=0.220000000 kw = 0.234093 pf=0.92 status=variable vmaxpu=1.5 vminpu=0.92 daily="RES2_14_DU" 







New "Load.BT_299571880_1_M1" bus1="NODE#493940840.1.2" phases=1 conn=Delta model=2 kv=0.240000000 kw = 0.076033 pf=0.92 status=variable vmaxpu=1.5 vminpu=0.92 daily="RES1_26_DU"  
New "Load.BT_299571880_1_M2" bus1="NODE#493940840.1.2" phases=1 conn=Delta model=3 kv=0.240000000 kw = 0.076033 pf=0.92 status=variable vmaxpu=1.5 vminpu=0.92 daily="RES1_26_DU" 


New "Load.BT_295227901_1_M1" bus1="NODE#483015813.1.2" phases=1 conn=Delta model=2 kv=0.240000000 kw = 0.0 pf=0.92 status=variable vmaxpu=1.5 vminpu=0.92 daily="RES1_2_DU"  
New "Load.BT_295227901_1_M2" bus1="NODE#483015813.1.2" phases=1 conn=Delta model=3 kv=0.240000000 kw = 0.0 pf=0.92 status=variable vmaxpu=1.5 vminpu=0.92 daily="RES1_2_DU" 






New "Load.BT_295226547_1_M1" bus1="NODE#482940339.3.1" phases=1 conn=Delta model=2 kv=0.220000000 kw = 0.0 pf=0.92 status=variable vmaxpu=1.5 vminpu=0.92 daily="RES2_1_DU"  
New "Load.BT_295226547_1_M2" bus1="NODE#482940339.3.1" phases=1 conn=Delta model=3 kv=0.220000000 kw = 0.0 pf=0.92 status=variable vmaxpu=1.5 vminpu=0.92 daily="RES2_1_DU" 



New "Load.BT_295227131_1_M1" bus1="NODE#482977611.1.2" phases=1 conn=Delta model=2 kv=0.220000000 kw = 0.0 pf=0.92 status=variable vmaxpu=1.5 vminpu=0.92 daily="RES1_16_DU"  
New "Load.BT_295227131_1_M2" bus1="NODE#482977611.1.2" phases=1 conn=Delta model=3 kv=0.220000000 kw = 0.0 pf=0.92 status=variable vmaxpu=1.5 vminpu=0.92 daily="RES1_16_DU" 





New "Load.BT_295227089_M1" bus1="NODE#482977401.2.3" phases=1 conn=Delta model=2 kv=0.220000000 kw = 0.0 pf=0.92 status=variable vmaxpu=1.5 vminpu=0.92 daily="RES2_4_DU"  
New "Load.BT_295227089_M2" bus1="NODE#482977401.2.3" phases=1 conn=Delta model=3 kv=0.220000000 kw = 0.0 pf=0.92 status=variable vmaxpu=1.5 vminpu=0.92 daily="RES2_4_DU" 










New "Load.BT_295228443_1_M1" bus1="NODE#483018523.1" phases=1 conn=Wye model=2 kv=0.220000000 kw = 0.085242 pf=0.92 status=variable vmaxpu=1.5 vminpu=0.92 daily="RES1_9_DU"  
New "Load.BT_295228443_1_M2" bus1="NODE#483018523.1" phases=1 conn=Wye model=3 kv=0.220000000 kw = 0.085242 pf=0.92 status=variable vmaxpu=1.5 vminpu=0.92 daily="RES1_9_DU" 
New "Load.BT_324075644_1_M1" bus1="NODE#512432816.1.2.3" phases=3 conn=Delta model=2 kv=0.220000000 kw = 0.1389355 pf=0.92 status=variable vmaxpu=1.5 vminpu=0.92 daily="RES1_5_DU"  
New "Load.BT_324075644_1_M2" bus1="NODE#512432816.1.2.3" phases=3 conn=Delta model=3 kv=0.220000000 kw = 0.1389355 pf=0.92 status=variable vmaxpu=1.5 vminpu=0.92 daily="RES1_5_DU" 




New "Load.BT_295227098_2_M1" bus1="NODE#482977446.2" phases=1 conn=Wye model=2 kv=0.220000000 kw = 0.1389355 pf=0.92 status=variable vmaxpu=1.5 vminpu=0.92 daily="RES1_5_DU"  
New "Load.BT_295227098_2_M2" bus1="NODE#482977446.2" phases=1 conn=Wye model=3 kv=0.220000000 kw = 0.1389355 pf=0.92 status=variable vmaxpu=1.5 vminpu=0.92 daily="RES1_5_DU" 
New "Load.BT_324074811_1_M1" bus1="NODE#512411449.1.2.3" phases=3 conn=Delta model=2 kv=0.220000000 kw = 0.04051 pf=0.92 status=variable vmaxpu=1.5 vminpu=0.92 daily="RES1_21_DU"  
New "Load.BT_324074811_1_M2" bus1="NODE#512411449.1.2.3" phases=3 conn=Delta model=3 kv=0.220000000 kw = 0.04051 pf=0.92 status=variable vmaxpu=1.5 vminpu=0.92 daily="RES1_21_DU" 




New "Load.BT_324075582_2_M1" bus1="NODE#512432506.1.2.3" phases=3 conn=Delta model=2 kv=0.220000000 kw = 0.034904 pf=0.92 status=variable vmaxpu=1.5 vminpu=0.92 daily="RES1_23_DU"  
New "Load.BT_324075582_2_M2" bus1="NODE#512432506.1.2.3" phases=3 conn=Delta model=3 kv=0.220000000 kw = 0.034904 pf=0.92 status=variable vmaxpu=1.5 vminpu=0.92 daily="RES1_23_DU" 








New "Load.BT_ _9_M1" bus1="NODE#497189379.1.2.3" phases=3 conn=Delta model=2 kv=0.220000000 kw = 0.0 pf=0.92 status=variable vmaxpu=1.5 vminpu=0.92 daily="RES5_5_DU"  
New "Load.BT_ _9_M2" bus1="NODE#497189379.1.2.3" phases=3 conn=Delta model=3 kv=0.220000000 kw = 0.0 pf=0.92 status=variable vmaxpu=1.5 vminpu=0.92 daily="RES5_5_DU" 





New "Load.BT_295227814_2_M1" bus1="NODE#483015378.1.2.3" phases=3 conn=Delta model=2 kv=0.220000000 kw = 0.1389355 pf=0.92 status=variable vmaxpu=1.5 vminpu=0.92 daily="RES1_5_DU"  
New "Load.BT_295227814_2_M2" bus1="NODE#483015378.1.2.3" phases=3 conn=Delta model=3 kv=0.220000000 kw = 0.1389355 pf=0.92 status=variable vmaxpu=1.5 vminpu=0.92 daily="RES1_5_DU" 
New "Load.BT_299389553_1_M1" bus1="NODE#493621771.1.2.3" phases=3 conn=Delta model=2 kv=0.220000000 kw = 0.0 pf=0.92 status=variable vmaxpu=1.5 vminpu=0.92 daily="RES2_25_DU"  
New "Load.BT_299389553_1_M2" bus1="NODE#493621771.1.2.3" phases=3 conn=Delta model=3 kv=0.220000000 kw = 0.0 pf=0.92 status=variable vmaxpu=1.5 vminpu=0.92 daily="RES2_25_DU" 









New "Load.BT_300507392_1_M1" bus1="NODE#497660930.1.2" phases=1 conn=Delta model=2 kv=0.240000000 kw = 0.0 pf=0.92 status=variable vmaxpu=1.5 vminpu=0.92 daily="RES2_10_DU"  
New "Load.BT_300507392_1_M2" bus1="NODE#497660930.1.2" phases=1 conn=Delta model=3 kv=0.240000000 kw = 0.0 pf=0.92 status=variable vmaxpu=1.5 vminpu=0.92 daily="RES2_10_DU" 




New "Load.BT_300143667_1_M1" bus1="NODE#496477793.1" phases=1 conn=Wye model=2 kv=0.220000000 kw = 0.038627 pf=0.92 status=variable vmaxpu=1.5 vminpu=0.92 daily="RES1_19_DU"  
New "Load.BT_300143667_1_M2" bus1="NODE#496477793.1" phases=1 conn=Wye model=3 kv=0.220000000 kw = 0.038627 pf=0.92 status=variable vmaxpu=1.5 vminpu=0.92 daily="RES1_19_DU" 
New "Load.BT_295140878_M1" bus1="NODE#482765332.2" phases=1 conn=Wye model=2 kv=0.220000000 kw = 0.060441 pf=0.92 status=variable vmaxpu=1.5 vminpu=0.92 daily="COM1_11_DU"  
New "Load.BT_295140878_M2" bus1="NODE#482765332.2" phases=1 conn=Wye model=3 kv=0.220000000 kw = 0.060441 pf=0.92 status=variable vmaxpu=1.5 vminpu=0.92 daily="COM1_11_DU" 





New "Load.BT_295226172_M1" bus1="NODE#482938464.1" phases=1 conn=Wye model=2 kv=0.220000000 kw = 0.0 pf=0.92 status=variable vmaxpu=1.5 vminpu=0.92 daily="RES2_10_DU"  
New "Load.BT_295226172_M2" bus1="NODE#482938464.1" phases=1 conn=Wye model=3 kv=0.220000000 kw = 0.0 pf=0.92 status=variable vmaxpu=1.5 vminpu=0.92 daily="RES2_10_DU" 







New "Load.BT_295228751_1_M1" bus1="NODE#483054415.3" phases=1 conn=Wye model=2 kv=0.220000000 kw = 0.0 pf=0.92 status=variable vmaxpu=1.5 vminpu=0.92 daily="RES1_11_DU"  
New "Load.BT_295228751_1_M2" bus1="NODE#483054415.3" phases=1 conn=Wye model=3 kv=0.220000000 kw = 0.0 pf=0.92 status=variable vmaxpu=1.5 vminpu=0.92 daily="RES1_11_DU" 

New "Load.BT_324073151_5_M1" bus1="NODE#512390249.1.2.3" phases=3 conn=Delta model=2 kv=0.220000000 kw = 0.0 pf=0.92 status=variable vmaxpu=1.5 vminpu=0.92 daily="COM1_14_DU"  
New "Load.BT_324073151_5_M2" bus1="NODE#512390249.1.2.3" phases=3 conn=Delta model=3 kv=0.220000000 kw = 0.0 pf=0.92 status=variable vmaxpu=1.5 vminpu=0.92 daily="COM1_14_DU" 


New "Load.BT_295226561_1_M1" bus1="NODE#482940409.1" phases=1 conn=Wye model=2 kv=0.220000000 kw = 0.0 pf=0.92 status=variable vmaxpu=1.5 vminpu=0.92 daily="RES1_2_DU"  
New "Load.BT_295226561_1_M2" bus1="NODE#482940409.1" phases=1 conn=Wye model=3 kv=0.220000000 kw = 0.0 pf=0.92 status=variable vmaxpu=1.5 vminpu=0.92 daily="RES1_2_DU" 
New "Load.BT_295227837_M1" bus1="NODE#483015493.3" phases=1 conn=Wye model=2 kv=0.220000000 kw = 0.0 pf=0.92 status=variable vmaxpu=1.5 vminpu=0.92 daily="RES2_28_DU"  
New "Load.BT_295227837_M2" bus1="NODE#483015493.3" phases=1 conn=Wye model=3 kv=0.220000000 kw = 0.0 pf=0.92 status=variable vmaxpu=1.5 vminpu=0.92 daily="RES2_28_DU" 




New "Load.BT_295227963_1_M1" bus1="NODE#483016123.1" phases=1 conn=Wye model=2 kv=0.220000000 kw = 0.084164 pf=0.92 status=variable vmaxpu=1.5 vminpu=0.92 daily="RES1_6_DU"  
New "Load.BT_295227963_1_M2" bus1="NODE#483016123.1" phases=1 conn=Wye model=3 kv=0.220000000 kw = 0.084164 pf=0.92 status=variable vmaxpu=1.5 vminpu=0.92 daily="RES1_6_DU" 




New "Load.BT_295228140_M1" bus1="NODE#483017008.2" phases=1 conn=Wye model=2 kv=0.120000000 kw = 0.084164 pf=0.92 status=variable vmaxpu=1.5 vminpu=0.92 daily="RES1_6_DU"  
New "Load.BT_295228140_M2" bus1="NODE#483017008.2" phases=1 conn=Wye model=3 kv=0.120000000 kw = 0.084164 pf=0.92 status=variable vmaxpu=1.5 vminpu=0.92 daily="RES1_6_DU" 












New "Load.BT_299955895_M1" bus1="NODE#495865257.1" phases=1 conn=Wye model=2 kv=0.220000000 kw = 0.0 pf=0.92 status=variable vmaxpu=1.5 vminpu=0.92 daily="COM1_21_DU"  
New "Load.BT_299955895_M2" bus1="NODE#495865257.1" phases=1 conn=Wye model=3 kv=0.220000000 kw = 0.0 pf=0.92 status=variable vmaxpu=1.5 vminpu=0.92 daily="COM1_21_DU" 

New "Load.BT_295226893_1_M1" bus1="NODE#482976421.1.2.3" phases=3 conn=Delta model=2 kv=0.220000000 kw = 0.04051 pf=0.92 status=variable vmaxpu=1.5 vminpu=0.92 daily="RES1_21_DU"  
New "Load.BT_295226893_1_M2" bus1="NODE#482976421.1.2.3" phases=3 conn=Delta model=3 kv=0.220000000 kw = 0.04051 pf=0.92 status=variable vmaxpu=1.5 vminpu=0.92 daily="RES1_21_DU" 


New "Load.BT_324073151_7_M1" bus1="NODE#512390249.1.2.3" phases=3 conn=Delta model=2 kv=0.220000000 kw = 0.060441 pf=0.92 status=variable vmaxpu=1.5 vminpu=0.92 daily="COM1_11_DU"  
New "Load.BT_324073151_7_M2" bus1="NODE#512390249.1.2.3" phases=3 conn=Delta model=3 kv=0.220000000 kw = 0.060441 pf=0.92 status=variable vmaxpu=1.5 vminpu=0.92 daily="COM1_11_DU" 
New "Load.BT_295227889_1_M1" bus1="NODE#483015753.1.2" phases=1 conn=Delta model=2 kv=0.240000000 kw = 0.0 pf=0.92 status=variable vmaxpu=1.5 vminpu=0.92 daily="RES2_15_DU"  
New "Load.BT_295227889_1_M2" bus1="NODE#483015753.1.2" phases=1 conn=Delta model=3 kv=0.240000000 kw = 0.0 pf=0.92 status=variable vmaxpu=1.5 vminpu=0.92 daily="RES2_15_DU" 








New "Load.BT_295226981_M1" bus1="NODE#482976861.3" phases=1 conn=Wye model=2 kv=0.220000000 kw = 0.0 pf=0.92 status=variable vmaxpu=1.5 vminpu=0.92 daily="RES1_10_DU"  
New "Load.BT_295226981_M2" bus1="NODE#482976861.3" phases=1 conn=Wye model=3 kv=0.220000000 kw = 0.0 pf=0.92 status=variable vmaxpu=1.5 vminpu=0.92 daily="RES1_10_DU" 




New "Load.BT_295226645_1_M1" bus1="NODE#482940829.2" phases=1 conn=Wye model=2 kv=0.220000000 kw = 0.0 pf=0.92 status=variable vmaxpu=1.5 vminpu=0.92 daily="RES3_15_DU"  
New "Load.BT_295226645_1_M2" bus1="NODE#482940829.2" phases=1 conn=Wye model=3 kv=0.220000000 kw = 0.0 pf=0.92 status=variable vmaxpu=1.5 vminpu=0.92 daily="RES3_15_DU" 

New "Load.BT_ _10_M1" bus1="NODE#497192104.1.2" phases=1 conn=Delta model=2 kv=0.220000000 kw = 0.0 pf=0.92 status=variable vmaxpu=1.5 vminpu=0.92 daily="RES6_7_DU"  
New "Load.BT_ _10_M2" bus1="NODE#497192104.1.2" phases=1 conn=Delta model=3 kv=0.220000000 kw = 0.0 pf=0.92 status=variable vmaxpu=1.5 vminpu=0.92 daily="RES6_7_DU" 








New "Load.BT_295228136_1_M1" bus1="NODE#483016988.1.2" phases=1 conn=Delta model=2 kv=0.240000000 kw = 0.0 pf=0.92 status=variable vmaxpu=1.5 vminpu=0.92 daily="RES3_8_DU"  
New "Load.BT_295228136_1_M2" bus1="NODE#483016988.1.2" phases=1 conn=Delta model=3 kv=0.240000000 kw = 0.0 pf=0.92 status=variable vmaxpu=1.5 vminpu=0.92 daily="RES3_8_DU" 

New "Load.BT_299764723_2_M1" bus1="NODE#494724725.1.2.3" phases=3 conn=Delta model=2 kv=0.220000000 kw = 0.1153825 pf=0.92 status=variable vmaxpu=1.5 vminpu=0.92 daily="RES1_8_DU"  
New "Load.BT_299764723_2_M2" bus1="NODE#494724725.1.2.3" phases=3 conn=Delta model=3 kv=0.220000000 kw = 0.1153825 pf=0.92 status=variable vmaxpu=1.5 vminpu=0.92 daily="RES1_8_DU" 

New "Load.BT_295227743_M1" bus1="NODE#483015023.1" phases=1 conn=Wye model=2 kv=0.120000000 kw = 0.0 pf=0.92 status=variable vmaxpu=1.5 vminpu=0.92 daily="RES2_6_DU"  
New "Load.BT_295227743_M2" bus1="NODE#483015023.1" phases=1 conn=Wye model=3 kv=0.120000000 kw = 0.0 pf=0.92 status=variable vmaxpu=1.5 vminpu=0.92 daily="RES2_6_DU" 
New "Load.BT_1319305920_1_M1" bus1="NODE#1616510999.1.2.3" phases=3 conn=Delta model=2 kv=0.220000000 kw = 0.04051 pf=0.92 status=variable vmaxpu=1.5 vminpu=0.92 daily="RES1_21_DU"  
New "Load.BT_1319305920_1_M2" bus1="NODE#1616510999.1.2.3" phases=3 conn=Delta model=3 kv=0.220000000 kw = 0.04051 pf=0.92 status=variable vmaxpu=1.5 vminpu=0.92 daily="RES1_21_DU" 



New "Load.BT_2081619806_2_M1" bus1="NODE#2394072904.1.2.3.4" phases=3 conn=Delta model=2 kv=0.220000000 kw = 0.04051 pf=0.92 status=variable vmaxpu=1.5 vminpu=0.92 daily="RES1_21_DU"  
New "Load.BT_2081619806_2_M2" bus1="NODE#2394072904.1.2.3.4" phases=3 conn=Delta model=3 kv=0.220000000 kw = 0.04051 pf=0.92 status=variable vmaxpu=1.5 vminpu=0.92 daily="RES1_21_DU" 

New "Load.BT_295227713_M1" bus1="NODE#482980521.2" phases=1 conn=Wye model=2 kv=0.120000000 kw = 0.0 pf=0.92 status=variable vmaxpu=1.5 vminpu=0.92 daily="RES2_4_DU"  
New "Load.BT_295227713_M2" bus1="NODE#482980521.2" phases=1 conn=Wye model=3 kv=0.120000000 kw = 0.0 pf=0.92 status=variable vmaxpu=1.5 vminpu=0.92 daily="RES2_4_DU" 



New "Load.BT_295226322_M1" bus1="NODE#482939214.1" phases=1 conn=Wye model=2 kv=0.120000000 kw = 0.0363195 pf=0.92 status=variable vmaxpu=1.5 vminpu=0.92 daily="COM1_4_DU"  
New "Load.BT_295226322_M2" bus1="NODE#482939214.1" phases=1 conn=Wye model=3 kv=0.120000000 kw = 0.0363195 pf=0.92 status=variable vmaxpu=1.5 vminpu=0.92 daily="COM1_4_DU" 

New "Load.BT_1352206425_M1" bus1="NODE#1646341147.1.2.4" phases=1 conn=Delta model=2 kv=0.220000000 kw = 0.0 pf=0.92 status=variable vmaxpu=1.5 vminpu=0.92 daily="COM1_5_DU"  
New "Load.BT_1352206425_M2" bus1="NODE#1646341147.1.2.4" phases=1 conn=Delta model=3 kv=0.220000000 kw = 0.0 pf=0.92 status=variable vmaxpu=1.5 vminpu=0.92 daily="COM1_5_DU" 






















New "Load.BT_295142007_6_M1" bus1="NODE#482826805.2" phases=1 conn=Wye model=2 kv=0.220000000 kw = 0.0407785 pf=0.92 status=variable vmaxpu=1.5 vminpu=0.92 daily="RES1_18_DU"  
New "Load.BT_295142007_6_M2" bus1="NODE#482826805.2" phases=1 conn=Wye model=3 kv=0.220000000 kw = 0.0407785 pf=0.92 status=variable vmaxpu=1.5 vminpu=0.92 daily="RES1_18_DU" 






