New "Circuit.JMLT310" basekv=13.8 pu=1.0 bus1="SEGM#194789369" r1=0.0 x1=0.0001
