New "Loadshape.COM1_1_DO" 24 1 mult=(0.960538298, 0.963674997, 0.967014065, 0.968531822, 0.966912881, 0.968531822, 0.963674997, 0.962258424, 0.960639482, 0.965698674, 1.0, 0.962966711, 0.952645958, 0.961347769, 0.95902054, 0.955782657, 0.96084185, 0.960538298, 0.963776181, 0.968531822, 0.981179804, 0.976424163, 0.973186279, 0.968577762)
New "Loadshape.COM1_1_DU" 24 1 mult=(0.998317331, 0.998416312, 0.991883599, 0.995248936, 0.990299911, 0.996832624, 0.990398891, 0.993764228, 0.991883599, 1.0, 0.990398891, 0.993467287, 0.981391666, 0.988815203, 0.995347916, 0.993368306, 0.985746808, 0.986043749, 0.990398891, 0.999703058, 0.995347916, 0.993467287, 1.0, 0.993498225)
New "Loadshape.COM1_1_SA" 24 1 mult=(0.959794019, 0.966428996, 0.96157655, 0.966032878, 0.966428996, 0.962962963, 0.968013468, 0.956823133, 0.966428996, 0.962962963, 0.964844524, 0.959893048, 0.958407605, 0.960289166, 0.956922163, 0.987720341, 1.0, 0.971083383, 0.962962963, 0.964547435, 0.963061992, 0.969498911, 0.972271737, 0.97542615)
New "Loadshape.COM1_10_DO" 24 1 mult=(0.378180869, 0.40323633, 0.414328592, 0.369176563, 0.425420853, 0.40976119, 0.400756884, 0.490147462, 0.87955109, 0.93905781, 0.939188307, 1.0, 0.878507112, 0.367088608, 0.400756884, 0.428030797, 0.378050372, 0.387054678, 0.425942842, 0.39814694, 0.387185176, 0.407803732, 0.418895994, 0.382659653)
New "Loadshape.COM1_10_DU" 24 1 mult=(0.053430471, 0.057036026, 0.055240667, 0.05445427, 0.052154431, 0.057822423, 0.052896314, 0.053415633, 0.069959642, 0.6096801, 0.815775417, 0.734435278, 0.696450828, 0.726244881, 0.73295151, 0.947118523, 0.959448632, 0.972861891, 1.0, 0.587304885, 0.195263814, 0.106059707, 0.050655825, 0.051696499)
New "Loadshape.COM1_10_SA" 24 1 mult=(0.06785363, 0.070942357, 0.063741885, 0.067558528, 0.06860122, 0.062404092, 0.070273461, 0.06716506, 0.086405666, 0.571001377, 0.981349597, 1.0, 0.970627582, 0.990989573, 0.605311824, 0.389022231, 0.321050561, 0.317410978, 0.286366319, 0.26049577, 0.159728507, 0.062089317, 0.065827267, 0.061779113)
New "Loadshape.COM1_11_DO" 24 1 mult=(0.680469167, 0.838102008, 0.741247556, 0.773058468, 0.754220722, 0.867247201, 0.753332149, 0.753687578, 0.791363071, 0.692020615, 0.738937267, 0.844855163, 0.792429358, 0.736804692, 0.794384219, 0.789052781, 0.787808779, 1.0, 0.814288253, 0.935489604, 0.813577395, 0.868668918, 0.921450151, 0.809039593)
New "Loadshape.COM1_11_DU" 24 1 mult=(0.142488289, 0.121574269, 0.131588654, 0.12745749, 0.118014828, 0.120984102, 0.123639851, 0.34253624, 0.718269337, 0.922540666, 1.0, 0.974954815, 0.78752167, 0.97820073, 0.871601933, 0.869702335, 0.964534691, 0.874810962, 0.191250784, 0.123916491, 0.12164804, 0.119859098, 0.117037365, 0.126259212)
New "Loadshape.COM1_11_SA" 24 1 mult=(0.158374567, 0.174776951, 0.169517279, 0.1666342, 0.190517006, 0.152296723, 0.176062649, 0.271126349, 0.535239802, 0.828456773, 1.0, 0.821015311, 0.301749328, 0.188919624, 0.21346476, 0.186309269, 0.155530448, 0.192698796, 0.17325749, 0.161296607, 0.163945923, 0.165504344, 0.166556278, 0.196746648)
New "Loadshape.COM1_12_DO" 24 1 mult=(0.502731643, 0.536713287, 0.527972028, 0.498361014, 0.519777098, 0.571131993, 0.51791958, 0.502731643, 0.53715035, 0.834899476, 1.0, 0.862980769, 0.884506119, 0.875327797, 0.784746503, 0.763002622, 0.483719406, 0.504479895, 0.685314685, 0.543378497, 0.544908217, 0.538570804, 0.537368881, 0.506617974)
New "Loadshape.COM1_12_DU" 24 1 mult=(0.065035315, 0.051326716, 0.063913811, 0.052651045, 0.062159969, 0.155984538, 0.307327956, 0.539467405, 1.0, 0.846127231, 0.86101699, 0.698017085, 0.660828481, 0.785124559, 0.870824186, 0.916245108, 0.575069199, 0.148981101, 0.06762432, 0.055872387, 0.05697003, 0.058747733, 0.052698769, 0.065336868)
New "Loadshape.COM1_12_SA" 24 1 mult=(0.074540113, 0.097978227, 0.094302276, 0.073519016, 0.081876306, 0.179870242, 0.338611622, 0.629514429, 0.841195784, 1.0, 0.714752502, 0.396295773, 0.563661498, 0.319430699, 0.277345775, 0.117174859, 0.088442748, 0.098260993, 0.078467411, 0.09733415, 0.076189579, 0.082001979, 0.079802693, 0.075618093)
New "Loadshape.COM1_13_DO" 24 1 mult=(0.302691924, 0.240528415, 0.230059821, 0.230309073, 0.25558325, 0.212612164, 0.252841476, 0.236340977, 0.299052841, 0.979062812, 0.606380857, 0.991226321, 0.742871386, 0.962562313, 1.0, 0.9889332, 0.981455633, 0.962811565, 0.684745763, 0.691575274, 0.475224327, 0.407577268, 0.461016949, 0.395428487)
New "Loadshape.COM1_13_DU" 24 1 mult=(0.083000659, 0.08761106, 0.081589311, 0.083726494, 0.080890358, 0.089560063, 0.082261382, 0.082893127, 0.275185827, 0.954675592, 0.974972109, 0.950401226, 0.954137936, 0.996464911, 1.0, 0.97009288, 0.972606422, 0.960589809, 0.712730352, 0.120246784, 0.094829093, 0.088699813, 0.086616396, 0.082236237)
New "Loadshape.COM1_13_SA" 24 1 mult=(0.091858679, 0.100184332, 0.088417819, 0.093886329, 0.093517665, 0.097726575, 0.088248848, 0.104393241, 0.475806452, 1.0, 0.975053763, 0.961382488, 0.926497696, 0.777711214, 0.373333333, 0.209892473, 0.209293395, 0.2093702, 0.221658986, 0.103655914, 0.10093702, 0.096267281, 0.09235023, 0.092906952)
New "Loadshape.COM1_14_DO" 24 1 mult=(0.453927025, 0.495361781, 0.459338281, 0.473716759, 0.485776129, 0.452071738, 0.493042672, 0.444186766, 0.471243043, 0.473871367, 0.447278912, 0.487631416, 0.45253556, 0.466141002, 0.466450216, 0.447433519, 0.493042672, 0.452071738, 0.493042672, 0.459492888, 0.461811998, 0.741651206, 1.0, 0.954162347)
New "Loadshape.COM1_14_DU" 24 1 mult=(0.09250894, 0.094987138, 0.097559445, 0.092132505, 0.101951189, 0.089466089, 0.098971077, 0.145554928, 0.690099755, 0.835340988, 0.867871259, 0.933841521, 1.0, 0.931049627, 0.886975343, 0.862130623, 0.915364828, 0.906361754, 0.594140159, 0.112020829, 0.092195244, 0.145711776, 0.209392057, 0.182334373)
New "Loadshape.COM1_14_SA" 24 1 mult=(0.116302766, 0.118413392, 0.113282387, 0.114010189, 0.117285298, 0.116739447, 0.107641921, 0.183915575, 0.824636099, 0.948835517, 0.947634643, 1.0, 0.89643377, 0.558697234, 0.163828239, 0.147852984, 0.151310044, 0.144468705, 0.143886463, 0.119905386, 0.111608443, 0.172889374, 0.244323144, 0.216767065)
New "Loadshape.COM1_15_DO" 24 1 mult=(0.21220536, 0.195156603, 0.171908298, 0.197933484, 0.181595092, 0.123797223, 0.11688731, 0.26903455, 0.379722312, 0.803035195, 0.802453988, 0.948014207, 0.736454634, 0.701969648, 0.722247336, 1.0, 0.65915402, 0.481110752, 0.250371327, 0.234355828, 0.186309332, 0.188763319, 0.215821763, 0.216277202)
New "Loadshape.COM1_15_DU" 24 1 mult=(0.075501618, 0.066860841, 0.058770227, 0.060776699, 0.07210356, 0.085210356, 0.09420712, 0.145695793, 0.180355987, 0.155177994, 0.546375405, 0.606019417, 0.659708738, 0.989255663, 0.790776699, 1.0, 0.925889968, 0.682200647, 0.341326861, 0.107378641, 0.083139159, 0.076796117, 0.075016181, 0.093594731)
New "Loadshape.COM1_15_SA" 24 1 mult=(0.131776679, 0.089309492, 0.102672627, 0.129018452, 0.081082366, 0.106619745, 0.2314533, 0.549172532, 0.700637246, 0.549933422, 0.554023207, 0.818052121, 0.77748716, 1.0, 0.894093589, 0.475699068, 0.298554309, 0.230169298, 0.141430474, 0.107523302, 0.11441887, 0.139956249, 0.102577516, 0.112462851)
New "Loadshape.COM1_16_DO" 24 1 mult=(0.38165038, 0.38165038, 0.373507058, 0.339305103, 0.314332248, 0.372421281, 0.382193268, 0.38165038, 0.390336591, 0.644408252, 1.0, 0.88165038, 0.737242128, 0.542888165, 0.542888165, 0.516829533, 0.466340934, 0.517372421, 0.55917481, 0.754614549, 0.551031488, 0.509229099, 0.475027144, 0.525387144)
New "Loadshape.COM1_16_DU" 24 1 mult=(0.028735312, 0.025226931, 0.020827532, 0.027788606, 0.02962633, 0.026953277, 0.027788606, 0.046945481, 0.489558389, 0.788717492, 0.567856546, 0.309572869, 0.064264632, 0.060032299, 0.202595088, 0.727905552, 1.0, 0.868686306, 0.606114607, 0.536448182, 0.092164615, 0.040875425, 0.037422732, 0.040035564)
New "Loadshape.COM1_16_SA" 24 1 mult=(0.060772017, 0.062008656, 0.062008656, 0.055207137, 0.052468863, 0.057945411, 0.064835262, 0.057945411, 0.6123134, 0.942054589, 0.972352266, 1.0, 0.794452787, 0.10202279, 0.937903012, 0.983482025, 0.862114654, 0.993110149, 0.931013161, 0.695168271, 0.059358714, 0.062008656, 0.057945411, 0.048330385)
New "Loadshape.COM1_17_DO" 24 1 mult=(0.525630225, 0.25604303, 0.10828851, 0.148791394, 0.137580196, 0.094031495, 0.15280928, 0.16797356, 0.127470676, 0.154818223, 0.380986326, 0.538655952, 0.522973236, 0.463223382, 0.587842654, 0.705657443, 0.544358758, 0.85969801, 0.818287862, 0.896247813, 0.785367118, 0.961570864, 1.0, 0.516948625)
New "Loadshape.COM1_17_DU" 24 1 mult=(0.174028576, 0.081590869, 0.045608991, 0.053711448, 0.065255271, 0.116962886, 0.115002614, 0.119010281, 0.085032236, 0.059156647, 0.212972643, 0.453824708, 0.510803276, 0.463059767, 0.500479178, 0.753876982, 0.87528315, 0.590172504, 0.607945635, 0.679691584, 0.617529186, 1.0, 0.856856595, 0.560483108)
New "Loadshape.COM1_17_SA" 24 1 mult=(0.610860266, 0.525190114, 0.381951046, 0.226176331, 0.09559173, 0.131772814, 0.107592681, 0.130762833, 0.259743346, 0.287606939, 0.402982414, 0.686371198, 0.746851236, 0.427043726, 0.857949144, 1.0, 0.810836502, 0.692252852, 0.917478612, 0.932212452, 0.795211502, 0.854562738, 0.68019249, 0.678432085)
New "Loadshape.COM1_18_DO" 24 1 mult=(0.760306687, 0.375816993, 0.413901458, 0.437782805, 0.399321267, 0.530291604, 0.413021619, 0.545625943, 0.590874811, 0.496354952, 0.514957265, 1.0, 0.457767722, 0.525012569, 0.379084967, 0.554801408, 0.44017094, 0.357088989, 0.319004525, 0.468828557, 0.358597285, 0.391151332, 0.510180995, 0.411762843)
New "Loadshape.COM1_18_DU" 24 1 mult=(0.107215616, 0.143459516, 0.132136258, 0.135784337, 0.141848676, 0.112521912, 0.277822523, 0.616241057, 0.930970768, 0.441749183, 0.375373099, 0.463827166, 0.645804709, 1.0, 0.68304354, 0.712133415, 0.513905339, 0.407921543, 0.308854882, 0.253754679, 0.140711612, 0.132989056, 0.095892358, 0.131008544)
New "Loadshape.COM1_18_SA" 24 1 mult=(0.161315453, 0.192754994, 0.201769518, 0.190139669, 0.156196094, 0.173112236, 0.310778476, 0.543152857, 0.536586723, 1.0, 0.568360136, 0.647431974, 0.86094263, 0.548105281, 0.742919148, 0.585443214, 0.493572979, 0.313727672, 0.257359079, 0.201769518, 0.16331868, 0.175560625, 0.19442435, 0.414013452)
New "Loadshape.COM1_19_DO" 24 1 mult=(0.564773808, 0.553849687, 0.415411869, 0.446019093, 0.421251189, 0.41656005, 0.468785881, 0.412885871, 0.481579897, 0.659285503, 0.60177804, 0.699143785, 0.815766165, 0.742479415, 0.771708821, 0.742643441, 0.725092675, 0.733786045, 0.939868123, 1.0, 0.869763475, 0.582193354, 0.486369452, 0.402277216)
New "Loadshape.COM1_19_DU" 24 1 mult=(0.264439836, 0.253673388, 0.247209107, 0.231390372, 0.224198032, 0.205246437, 0.243061378, 0.277897895, 0.354520584, 0.420134139, 0.4308344, 0.44724882, 0.503463796, 0.52554825, 0.797003927, 0.868243392, 0.784604863, 0.928451661, 0.862705732, 1.0, 0.652451132, 0.429047346, 0.358315316, 0.271543491)
New "Loadshape.COM1_19_SA" 24 1 mult=(0.526787016, 0.46271399, 0.426229986, 0.434191723, 0.391087521, 0.426550789, 0.400361632, 0.41631427, 0.59648867, 0.692087842, 0.831666132, 0.98734288, 0.851380909, 0.722330777, 0.875120301, 0.770130363, 0.644784042, 0.80792674, 1.0, 0.982939135, 0.95126717, 0.761031235, 0.58730205, 0.53164461)
New "Loadshape.COM1_2_DO" 24 1 mult=(0.330868545, 0.719014085, 0.354225352, 0.722652582, 0.449647887, 0.569483568, 0.740962441, 1.0, 0.917957746, 0.799295775, 0.998943662, 0.828051643, 0.767018779, 0.299530516, 0.696713615, 0.403169014, 0.760798122, 0.477934272, 0.627464789, 0.56056338, 0.547652582, 0.619483568, 0.502112676, 0.673677727)
New "Loadshape.COM1_2_DU" 24 1 mult=(0.371481161, 0.733759203, 0.414789952, 0.650389779, 0.50985275, 0.668796016, 0.760177566, 0.678757038, 0.854157644, 0.688068428, 0.847011693, 0.605132092, 0.885231702, 0.627219576, 0.881225639, 0.71881767, 1.0, 0.739389346, 0.69802945, 0.600692941, 0.514508445, 0.64768298, 0.451169337, 0.707674344)
New "Loadshape.COM1_2_SA" 24 1 mult=(0.446436626, 0.635205232, 0.48624267, 0.576792963, 0.562471809, 0.555931439, 0.820252594, 0.7409788, 0.977108705, 0.73060442, 0.932679296, 0.899075327, 1.0, 0.634866937, 0.972485341, 0.833107803, 0.99481281, 0.686400541, 0.577807848, 0.644564727, 0.426138926, 0.690234551, 0.412381597, 0.756170048)
New "Loadshape.COM1_20_DO" 24 1 mult=(0.658978042, 0.586373897, 0.538231069, 0.549846091, 0.524522881, 0.574307408, 0.639523907, 0.64916889, 0.641740201, 0.795813667, 0.923619947, 0.692756002, 0.661645803, 0.62864765, 0.702729325, 0.730474041, 1.0, 0.73162323, 0.915329366, 0.93593269, 0.927108557, 0.985676175, 0.81937205, 0.768871669)
New "Loadshape.COM1_20_DU" 24 1 mult=(0.148694442, 0.146482842, 0.144182065, 0.135647785, 0.141096526, 0.138644146, 0.239700007, 0.390980595, 0.769592281, 1.0, 0.885781551, 0.704813798, 0.511236356, 0.339748163, 0.305655632, 0.309427838, 0.280338161, 0.267282585, 0.250142684, 0.24312442, 0.196680816, 0.213098381, 0.213464008, 0.179327452)
New "Loadshape.COM1_20_SA" 24 1 mult=(0.281945559, 0.303028042, 0.251422601, 0.255844325, 0.242803037, 0.28968824, 0.272896882, 0.342413105, 0.813410698, 1.0, 0.737084647, 0.871975223, 0.494636094, 0.474952891, 0.331722607, 0.332898002, 0.390828187, 0.326461315, 0.383701188, 0.38801097, 0.372003209, 0.354409597, 0.332487546, 0.290059084)
New "Loadshape.COM1_21_DO" 24 1 mult=(0.259976218, 0.199984657, 0.217680377, 0.198475918, 0.19975451, 0.183465241, 0.217526946, 0.2935137, 0.454156065, 0.573039598, 0.6181867, 0.50258915, 0.243290586, 0.216222782, 0.205853397, 0.344261037, 0.405863625, 0.652683126, 1.0, 0.975208091, 0.935367148, 0.584137781, 0.308076869, 0.255729799)
New "Loadshape.COM1_21_DU" 24 1 mult=(0.07676056, 0.070195571, 0.071458753, 0.071819027, 0.074954743, 0.066543907, 0.074825756, 0.078535242, 0.076280195, 0.081675407, 0.094569651, 0.101321449, 0.08825374, 0.088480579, 0.121817025, 0.10017391, 0.111573685, 0.284233795, 0.850139439, 1.0, 0.932250733, 0.403657891, 0.176667601, 0.083048621)
New "Loadshape.COM1_21_SA" 24 1 mult=(0.212317686, 0.196699686, 0.181392802, 0.176327841, 0.169533078, 0.178704764, 0.164455672, 0.164119667, 0.161045846, 0.158917816, 0.206804719, 0.231843297, 0.198678381, 0.239297626, 0.229155259, 0.307158146, 0.62063816, 0.843571109, 0.755873861, 1.0, 0.762593957, 0.335046543, 0.306013241, 0.25008408)
New "Loadshape.COM1_22_DO" 24 1 mult=(0.758551532, 0.8, 0.636657382, 0.676657382, 0.633871866, 0.715877437, 0.859832869, 0.936713092, 1.0, 0.933593315, 0.98729805, 0.857158774, 0.862395543, 0.948189415, 0.857381616, 0.78362117, 0.750083565, 0.911309192, 0.845905292, 0.957214485, 0.705292479, 0.697270195, 0.830640669, 0.806703583)
New "Loadshape.COM1_22_DU" 24 1 mult=(0.227856905, 0.176751641, 0.181559769, 0.200217727, 0.200943482, 0.192929934, 0.200550364, 0.226223956, 0.224530527, 0.405243582, 0.483594908, 0.385496991, 0.324866189, 0.747648855, 0.982188757, 0.999153286, 1.0, 0.988206477, 0.526807584, 0.237442922, 0.250173879, 0.251958027, 0.268015362, 0.227866162)
New "Loadshape.COM1_22_SA" 24 1 mult=(0.511344419, 0.451169673, 0.529523675, 0.456947576, 0.451874295, 0.477663472, 0.621265502, 0.469630778, 0.361612176, 0.475267756, 0.663683766, 0.557426719, 0.567361894, 0.78755637, 0.897547914, 0.808060879, 0.881341601, 1.0, 0.54988726, 0.54072717, 0.497745209, 0.545236753, 0.49464487, 0.529750147)
New "Loadshape.COM1_23_DO" 24 1 mult=(0.361305467, 0.306459622, 0.285514377, 0.280052363, 0.31219248, 0.289983298, 0.375840744, 0.483546247, 0.352367625, 0.467115063, 0.501105945, 0.486796371, 0.665733761, 0.646594141, 0.570938473, 0.456236176, 0.747528551, 0.640725861, 0.99557622, 0.707759671, 0.908906243, 1.0, 0.632735973, 0.426468637)
New "Loadshape.COM1_23_DU" 24 1 mult=(0.201661579, 0.137722902, 0.182911436, 0.145457049, 0.224060772, 0.176141188, 0.175911688, 0.184632685, 0.219401923, 0.239597916, 0.282032451, 0.255158011, 0.357262525, 0.206733528, 0.320657288, 0.718724898, 1.0, 0.931081174, 0.365524522, 0.25846281, 0.25729236, 0.237624217, 0.201753379, 0.192474969)
New "Loadshape.COM1_23_SA" 24 1 mult=(0.352519751, 0.361794004, 0.374699446, 0.327248638, 0.375582708, 0.294960499, 0.36861475, 0.333431474, 0.279650621, 0.375975269, 0.479218804, 0.355169537, 0.9512243, 0.569458757, 0.537072477, 0.509053437, 0.761764562, 0.575739732, 1.0, 0.602532018, 0.534177339, 0.556258894, 0.550321409, 0.508687148)
New "Loadshape.COM1_24_DO" 24 1 mult=(0.379803731, 0.214173346, 0.223986815, 0.272155218, 0.260019477, 0.286463405, 0.280095887, 0.211176867, 0.368866582, 0.432841411, 0.489699603, 0.845082029, 0.918870327, 0.458835868, 0.490298899, 1.0, 0.505580942, 0.557869503, 0.478163158, 0.542362724, 0.842834669, 0.671960446, 0.570904188, 0.438181013)
New "Loadshape.COM1_24_DU" 24 1 mult=(0.231062904, 0.164091769, 0.179005959, 0.153245085, 0.192707033, 0.260249046, 0.302422664, 0.362721661, 0.278659864, 0.262603918, 0.61597745, 0.515288829, 0.348877868, 0.296892282, 0.421379384, 0.272844043, 0.465122917, 0.266493025, 0.243515182, 1.0, 0.406393835, 0.566489457, 0.588218504, 0.230155604)
New "Loadshape.COM1_24_SA" 24 1 mult=(0.207507038, 0.252236472, 0.186237097, 0.21063497, 0.150641226, 0.278448546, 0.270190804, 0.388238974, 0.423647169, 0.505786675, 0.479324367, 0.80694401, 0.815702221, 0.585674069, 0.533938067, 0.487331874, 1.0, 0.515670942, 0.646668752, 0.543009071, 0.661620269, 0.514169534, 0.335001564, 0.270034455)
New "Loadshape.COM1_25_DO" 24 1 mult=(0.638263513, 0.673759539, 0.559671955, 0.461258352, 0.477628954, 0.437414901, 0.520471169, 0.42785219, 0.413761439, 0.70523416, 0.434375099, 0.340996169, 0.636205313, 0.589120041, 0.64985276, 0.416326272, 0.518539628, 0.788702068, 0.554890599, 1.0, 0.757860739, 0.676451031, 0.504480542, 0.679701868)
New "Loadshape.COM1_25_DU" 24 1 mult=(0.330751185, 0.416401935, 0.539709692, 0.381188603, 0.297957089, 0.405258785, 0.48915009, 0.446874542, 0.476833977, 0.525047652, 0.588558721, 1.0, 0.571648502, 0.464004692, 0.736205464, 0.58438004, 0.804212893, 0.613875177, 0.595254386, 0.567982992, 0.702385025, 0.962856165, 0.450882166, 0.390095505)
New "Loadshape.COM1_25_SA" 24 1 mult=(0.441297066, 0.527777778, 0.453886579, 0.40985216, 0.632045507, 0.575768076, 0.354007854, 0.482934858, 0.808096558, 0.543803419, 1.0, 0.571869947, 0.514350889, 0.588848464, 0.450912451, 0.673596674, 0.58980134, 0.721500347, 0.858887734, 0.610620236, 0.628840379, 0.637214137, 0.58980134, 0.56981319)
New "Loadshape.COM1_26_DO" 24 1 mult=(0.167087782, 0.328388622, 0.469638927, 0.443882957, 0.407042139, 0.212975793, 0.119569647, 0.116390904, 0.146222186, 0.248594017, 0.314451056, 0.716113783, 0.286086886, 0.238161219, 0.288287554, 0.167658326, 0.571847746, 1.0, 0.86641128, 0.455375336, 0.279158856, 0.397668922, 0.573151846, 0.535393046)
New "Loadshape.COM1_26_DU" 24 1 mult=(0.147785182, 0.149577197, 0.10500084, 0.081312651, 0.100352803, 0.66125329, 0.839278714, 0.269306154, 0.493251946, 0.158537268, 0.183457468, 0.218569749, 0.317914543, 1.0, 0.309066473, 0.375539004, 0.463123705, 0.999831999, 0.592988744, 0.316402531, 0.320602565, 0.327042616, 0.502380019, 0.282526391)
New "Loadshape.COM1_26_SA" 24 1 mult=(0.52841504, 0.618657782, 0.296430271, 0.074773917, 0.228843408, 0.113041409, 0.085721085, 0.23236554, 0.063350785, 0.388196097, 0.072251309, 0.089481199, 0.119276535, 0.158067587, 0.44578772, 0.396953832, 0.423465017, 0.37829605, 1.0, 0.708614945, 0.494907187, 0.785721085, 0.488672061, 0.607058363)
New "Loadshape.COM1_3_DO" 24 1 mult=(0.829442558, 0.85795133, 0.936827957, 0.964063384, 0.931097906, 0.871462932, 0.845500849, 0.712931522, 0.864035088, 0.807088285, 0.688596491, 0.657328806, 0.723542728, 0.631437465, 0.533460668, 0.674448217, 0.785229202, 0.592317487, 0.906975099, 0.823500283, 0.970783814, 1.0, 0.914473684, 0.780695866)
New "Loadshape.COM1_3_DU" 24 1 mult=(0.812198677, 0.898026685, 0.745767463, 0.734891804, 0.715663191, 0.698060321, 0.725866128, 0.894326718, 0.831987891, 0.63398363, 0.751597713, 0.759670367, 0.737414508, 0.82548492, 0.69744366, 0.556620697, 0.818533468, 0.954815562, 1.0, 0.922861307, 0.785962552, 0.864110326, 0.834286355, 0.913422047)
New "Loadshape.COM1_3_SA" 24 1 mult=(0.858696246, 0.821375881, 0.884978963, 0.836948801, 0.824872958, 0.812086771, 0.719960658, 0.8309382, 0.783345172, 0.60581389, 0.516747719, 0.545653243, 0.563138626, 0.485765805, 0.645593137, 0.780995574, 0.661056773, 1.0, 0.808371127, 0.902682914, 0.753128244, 0.676137916, 0.759193487, 0.739567849)
New "Loadshape.COM1_4_DO" 24 1 mult=(0.746768351, 0.663832221, 0.685433746, 0.632964728, 0.685433746, 0.714928503, 0.764823642, 0.712183031, 0.754509056, 0.833479504, 0.892850334, 1.0, 0.986596759, 0.916224976, 0.771534795, 0.761944709, 0.786901811, 0.757483317, 0.783908484, 0.751306006, 0.811954242, 0.711401335, 0.693098189, 0.651413479)
New "Loadshape.COM1_4_DU" 24 1 mult=(0.654994548, 0.555363232, 0.580599934, 0.578522839, 0.573347411, 0.542433317, 0.549097329, 0.528880273, 0.615668219, 0.69542866, 0.802122099, 0.899693629, 0.881865231, 0.968410849, 0.881224794, 0.953836567, 0.948280339, 1.0, 0.934156094, 0.917106607, 0.820815952, 0.783116681, 0.66600315, 0.62636851)
New "Loadshape.COM1_4_SA" 24 1 mult=(0.648366102, 0.566543107, 0.608274543, 0.530329171, 0.577321877, 0.605438923, 0.644403068, 0.625903213, 0.708033686, 0.762388753, 0.812490391, 0.927742949, 0.933858322, 1.0, 0.968893596, 0.965870074, 0.874891102, 0.811431305, 0.813156591, 0.802582805, 0.763874891, 0.680873234, 0.663124989, 0.646199926)
New "Loadshape.COM1_5_DO" 24 1 mult=(0.74836137, 0.747780181, 0.882729005, 0.798279035, 0.816651061, 0.779228956, 0.642988602, 0.504794808, 0.342675406, 0.323108715, 0.373623713, 0.361693197, 0.334215879, 0.329372639, 0.283377999, 0.261115237, 0.411142682, 0.663879113, 0.825530335, 0.917842498, 1.0, 0.996851894, 0.92667334, 0.920376841)
New "Loadshape.COM1_5_DU" 24 1 mult=(0.958562943, 0.948448198, 0.942329254, 0.888045993, 0.646806937, 0.598582981, 0.411436342, 0.466125146, 0.206851308, 0.207006369, 0.227367065, 0.1881605, 0.186920012, 0.206242992, 0.184093132, 0.218278108, 0.340740476, 0.491006465, 0.52866242, 0.776581025, 1.0, 0.847622796, 0.692478351, 0.913922952)
New "Loadshape.COM1_5_SA" 24 1 mult=(1.0, 0.967900817, 0.943962885, 0.927341486, 0.699684206, 0.578149164, 0.481786638, 0.457822714, 0.232413677, 0.252439928, 0.216429063, 0.260328269, 0.201886964, 0.285864664, 0.217065849, 0.244993437, 0.335689873, 0.500734253, 0.587116142, 0.754070878, 0.821998986, 0.772511664, 0.669027538, 0.686019659)
New "Loadshape.COM1_6_DO" 24 1 mult=(0.133085065, 0.143865151, 0.166699334, 0.127107017, 0.123872991, 0.120932967, 0.117796942, 0.113288906, 0.107016856, 0.09496276, 0.090258722, 0.103978832, 0.101038808, 0.096432771, 0.089670717, 0.78626029, 0.964719718, 1.0, 0.981869855, 0.999117993, 0.975401803, 0.210407683, 0.079772638, 0.076507424)
New "Loadshape.COM1_6_DU" 24 1 mult=(0.12056686, 0.07943314, 0.12252907, 0.119186047, 0.121438953, 0.631322674, 0.952034884, 1.0, 0.948473837, 0.941715116, 0.927906977, 0.892151163, 0.853997093, 0.864462209, 0.849127907, 0.892659884, 0.973037791, 0.976017442, 0.973110465, 0.952979651, 0.911991279, 0.448837209, 0.17252907, 0.095387081)
New "Loadshape.COM1_6_SA" 24 1 mult=(0.167410714, 0.079017857, 0.089508929, 0.133705357, 0.0546875, 0.331324405, 0.572172619, 0.836532738, 0.877678571, 0.836755952, 0.831547619, 0.826339286, 0.944419643, 0.890178571, 0.702901786, 0.771354167, 0.816889881, 0.914880952, 1.0, 0.908779762, 0.910193452, 0.42172619, 0.080208333, 0.059248795)
New "Loadshape.COM1_7_DO" 24 1 mult=(0.733280255, 0.794939844, 0.741153574, 0.808297948, 0.71594126, 0.750353857, 0.753007785, 0.800070771, 0.785474168, 0.844037509, 0.835014154, 0.850141543, 0.832360226, 0.790605096, 0.801663128, 0.847929936, 0.816790517, 0.915428167, 0.942144374, 1.0, 0.974522293, 0.973018401, 0.935244161, 0.718685403)
New "Loadshape.COM1_7_DU" 24 1 mult=(0.288117147, 0.327034069, 0.288051186, 0.317964447, 0.250222618, 0.294746215, 0.240526368, 0.416081264, 0.817849016, 0.909501666, 0.924837571, 0.927871772, 0.804392995, 0.800237459, 0.837307477, 0.879192639, 0.961182019, 1.0, 0.924243923, 0.789947561, 0.55064147, 0.367995779, 0.286402164, 0.258846904)
New "Loadshape.COM1_7_SA" 24 1 mult=(0.365756705, 0.406321839, 0.4, 0.418390805, 0.403113027, 0.409626437, 0.395306513, 0.424712644, 0.714128352, 0.978687739, 1.0, 0.848180077, 0.655842912, 0.643390805, 0.600814176, 0.661685824, 0.599281609, 0.540229885, 0.517097701, 0.53802682, 0.507519157, 0.523754789, 0.396886973, 0.433425824)
New "Loadshape.COM1_8_DO" 24 1 mult=(0.772970658, 0.785607196, 0.789890769, 0.681944742, 0.793103448, 0.70871707, 0.727993146, 0.688798458, 0.822660099, 1.0, 0.959734419, 0.983294067, 0.715570786, 0.622188906, 0.682158921, 0.753266224, 0.717712572, 0.81623474, 0.691796959, 0.792246734, 0.75240951, 0.738487899, 0.782822874, 0.712060538)
New "Loadshape.COM1_8_DU" 24 1 mult=(0.078236903, 0.070185338, 0.078236903, 0.073570902, 0.076891358, 0.07504666, 0.062090369, 0.398411389, 0.577520726, 0.595598767, 0.562632927, 0.51927167, 0.544685099, 0.586049742, 0.727114892, 0.697838448, 0.916771561, 1.0, 0.403902079, 0.130105473, 0.103997569, 0.108511654, 0.110161031, 0.098653639)
New "Loadshape.COM1_8_SA" 24 1 mult=(0.142182279, 0.131236318, 0.132618965, 0.133809579, 0.129047125, 0.134116834, 0.121519376, 0.218151093, 0.7260053, 0.692629719, 0.888274379, 1.0, 0.88900411, 0.322963475, 0.200906402, 0.210085647, 0.249567923, 0.430617967, 0.214771287, 0.112071283, 0.171448324, 0.143411299, 0.140838038, 0.140412408)
New "Loadshape.COM1_9_DO" 24 1 mult=(0.219904108, 0.217312427, 0.215368667, 0.217442011, 0.217442011, 0.215368667, 0.368796164, 0.832188674, 0.986004924, 0.955163924, 0.99196579, 0.993520798, 1.0, 0.548788389, 0.293378256, 0.290138655, 0.289231567, 0.285732798, 0.283659453, 0.287806142, 0.296229105, 0.30024621, 0.302319554, 0.304815008)
New "Loadshape.COM1_9_DU" 24 1 mult=(0.09391658, 0.09111392, 0.09204814, 0.098752542, 0.096829148, 0.093037314, 0.253393416, 0.364675496, 0.641754135, 0.715667418, 0.687036325, 0.70033522, 0.650601748, 0.611859098, 0.610265428, 0.617134693, 0.738363467, 0.829367478, 0.933010936, 1.0, 0.331703028, 0.099631807, 0.090344562, 0.09028474)
New "Loadshape.COM1_9_SA" 24 1 mult=(0.137813114, 0.137813114, 0.137727622, 0.139095495, 0.142002223, 0.143712063, 0.190134222, 0.583226468, 0.949901684, 0.976831666, 0.958450885, 1.0, 0.953748824, 0.929982047, 0.941950928, 0.873557322, 0.617337779, 0.749850389, 0.799863213, 0.808155937, 0.438232025, 0.140719843, 0.139779431, 0.138103397)
New "Loadshape.COM2_1_DO" 24 1 mult=(0.91640995, 0.932671234, 0.918785538, 0.915551673, 0.919061413, 0.913513265, 0.915888853, 0.924517602, 0.946035833, 0.943598939, 0.942755989, 0.997118641, 1.0, 0.98456634, 0.966711113, 0.953239229, 0.936824682, 0.965561635, 0.953484451, 0.956457768, 0.963186047, 0.933330268, 0.964366178, 0.945391101)
New "Loadshape.COM2_1_DU" 24 1 mult=(0.9038584, 0.894306472, 0.906970013, 0.88052854, 0.885159778, 0.895637953, 0.923917448, 0.92320829, 0.937854579, 0.938795299, 0.957161051, 0.9699259, 0.969983791, 1.0, 0.982097372, 0.99076647, 0.980302767, 0.967885261, 0.974658446, 0.917332407, 0.893047354, 0.880832465, 0.927434294, 0.905956963)
New "Loadshape.COM2_1_SA" 24 1 mult=(0.903092695, 0.904717402, 0.921122629, 0.910195396, 0.898736179, 0.86573881, 0.900173973, 0.898865581, 0.888729134, 0.901295452, 0.919727969, 0.933732081, 0.952567181, 0.967606505, 0.98647036, 0.984428693, 1.0, 0.960345646, 0.916564823, 0.882517865, 0.873862346, 0.875832123, 0.887276962, 0.857318298)
New "Loadshape.COM2_10_DO" 24 1 mult=(0.230022198, 0.238716241, 0.248612653, 0.274833518, 0.249953755, 0.525434702, 0.649741028, 0.651960784, 0.623473918, 0.713790233, 0.75282094, 0.777700703, 0.869496855, 0.941777654, 1.0, 0.967489826, 0.884433962, 0.849935257, 0.85918424, 0.906955235, 0.858028117, 0.779966704, 0.677857936, 0.391661815)
New "Loadshape.COM2_10_DU" 24 1 mult=(0.035901906, 0.036349502, 0.043487479, 0.060661029, 0.140474452, 0.509010813, 0.863789489, 0.809865957, 0.814648166, 0.790902024, 0.695304954, 0.598954039, 0.482673326, 0.720700134, 0.806662112, 0.787674621, 0.936983203, 0.899220241, 1.0, 0.94209522, 0.869961601, 0.686800631, 0.376216165, 0.199746759)
New "Loadshape.COM2_10_SA" 24 1 mult=(0.16971086, 0.17612835, 0.184414669, 0.185543018, 0.228984485, 0.563399154, 0.605712271, 0.841114245, 0.988892807, 1.0, 0.603808181, 0.653596615, 0.618617772, 0.540550071, 0.564915374, 0.622390691, 0.618406206, 0.590197461, 0.598025388, 0.63903385, 0.667559944, 0.634661495, 0.455818054, 0.274286452)
New "Loadshape.COM2_11_DO" 24 1 mult=(0.31002316, 0.302174472, 0.314140504, 0.297220793, 0.326621204, 0.297606794, 0.30873649, 1.0, 0.690941843, 0.69255018, 0.612454967, 0.487969635, 0.352933608, 0.326299537, 0.344248585, 0.441134843, 0.364384972, 0.382462687, 0.365221307, 0.370303654, 0.350231601, 0.301338137, 0.322246526, 0.30410087)
New "Loadshape.COM2_11_DU" 24 1 mult=(0.142567168, 0.137379831, 0.139381467, 0.200276282, 0.268219109, 0.651348989, 1.0, 0.945307434, 0.880663077, 0.840827718, 0.875278396, 0.899749091, 0.884609963, 0.744269967, 0.848580531, 0.858588706, 0.696089763, 0.3752643, 0.294155789, 0.173240112, 0.16991345, 0.149530602, 0.144963491, 0.146596156)
New "Loadshape.COM2_11_SA" 24 1 mult=(0.14751773, 0.149486177, 0.147025619, 0.20063685, 0.21105804, 0.430192503, 0.813721233, 0.90597771, 1.0, 0.994644666, 0.719554205, 0.653784918, 0.630018816, 0.453813866, 0.397886814, 0.383673469, 0.370646982, 0.290751194, 0.248255898, 0.235142568, 0.214965986, 0.19241569, 0.19215516, 0.190965825)
New "Loadshape.COM2_12_DO" 24 1 mult=(0.488597843, 0.522187982, 0.516640986, 0.501155624, 0.598382126, 0.743066256, 0.739214176, 0.762403698, 0.661864407, 0.717334361, 0.83459168, 0.993220339, 1.0, 0.739137134, 0.771494607, 0.807318952, 0.769953775, 0.756163328, 0.892835131, 0.823266564, 0.772727273, 0.81440678, 0.826656394, 0.770418879)