New "Line.RBT_1021555696" phases=2 bus1="NODE#420661268.1.4" bus2="NODE#1286092009W.1.4" linecode="6_2" length=0.01500 units=km
New "Line.RBT_1106993590" phases=3 bus1="NODE#461017080.1.2.4" bus2="NODE#1376828755W.1.2.4" linecode="80_3" length=0.01500 units=km
New "Line.RBT_1106993637" phases=4 bus1="NODE#464613016.1.2.3.4" bus2="NODE#1376828849W.1.2.3.4" linecode="135_4" length=0.01500 units=km
New "Line.RBT_1207425753" phases=3 bus1="NODE#452470977.1.2.4" bus2="NODE#1503250252W.1.2.4" linecode="3_3" length=0.01000 units=km
New "Line.RBT_1352206398" phases=2 bus1="NODE#461571737.1.4" bus2="NODE#1646341112W.1.4" linecode="6_2" length=0.01400 units=km
New "Line.RBT_1352206425" phases=3 bus1="NODE#463140049.1.2.4" bus2="NODE#1646341147W.1.2.4" linecode="3_3" length=0.01700 units=km
New "Line.RBT_1352206445" phases=3 bus1="NODE#462584627.1.2.4" bus2="NODE#1646341172W.1.2.4" linecode="4_3" length=0.01600 units=km
New "Line.RBT_1319305827" phases=3 bus1="NODE#738615251.1.2.4" bus2="NODE#1616510835W.1.2.4" linecode="80_3" length=0.01500 units=km
New "Line.RBT_1319305920" phases=4 bus1="NODE#420661382.1.2.3.4" bus2="NODE#1616510999W.1.2.3.4" linecode="135_4" length=0.01500 units=km
New "Line.RBT_1381113615" phases=3 bus1="NODE#420217518.1.2.4" bus2="NODE#1676004072W.1.2.4" linecode="3_3" length=0.00500 units=km
New "Line.RBT_1410188259" phases=3 bus1="NODE#461449808.1.2.4" bus2="NODE#1707264360W.1.2.4" linecode="4_3" length=0.01700 units=km
New "Line.RBT_1441740955" phases=3 bus1="NODE#461789360.1.2.4" bus2="NODE#1738035633W.1.2.4" linecode="3_3" length=0.01700 units=km
New "Line.RBT_295225698" phases=4 bus1="NODE#454883162.1.2.3.4" bus2="NODE#482897448W.1.2.3.4" linecode="9_4" length=0.02500 units=km
New "Line.RBT_1798662304" phases=3 bus1="NODE#463138410.1.2.4" bus2="NODE#2122722003W.1.2.4" linecode="12_3" length=0.01500 units=km
New "Line.RBT_1798662381" phases=4 bus1="NODE#461994336.1.2.3.4" bus2="NODE#2122722091W.1.2.3.4" linecode="10_4" length=0.00300 units=km
New "Line.RBT_1826294130" phases=2 bus1="NODE#465785258.2.4" bus2="NODE#2148962471W.2.4" linecode="7_2" length=0.01500 units=km
New "Line.RBT_1986954032" phases=3 bus1="NODE#420661232.1.2.4" bus2="NODE#2306182876W.1.2.4" linecode="12_3" length=0.01500 units=km
New "Line.RBT_1986954127" phases=3 bus1="NODE#452372235.1.2.4" bus2="NODE#2306182984W.1.2.4" linecode="4_3" length=0.01500 units=km
New "Line.RBT_1986954227" phases=4 bus1="NODE#463776424.1.2.3.4" bus2="NODE#2306183099W.1.2.3.4" linecode="9_4" length=0.01400 units=km
New "Line.RBT_1986954411" phases=3 bus1="NODE#420735593.1.2.4" bus2="NODE#2306183323W.1.2.4" linecode="3_3" length=0.01700 units=km
New "Line.RBT_1986954514" phases=4 bus1="NODE#420686323.1.2.3.4" bus2="NODE#2306183445W.1.2.3.4" linecode="2_4" length=0.01500 units=km
New "Line.RBT_1997581827" phases=4 bus1="NODE#2316029295.1.2.3.4" bus2="100#1997581838W.1.2.3.4" linecode="343_4" length=0.00100 units=km
New "Line.RBT_2072919960" phases=4 bus1="NODE#910289359.1.2.3.4" bus2="NODE#2385372883W.1.2.3.4" linecode="9_4" length=0.00200 units=km
New "Line.RBT_2081619806" phases=4 bus1="NODE#464049433.1.2.3.4" bus2="NODE#2394072904W.1.2.3.4" linecode="16_4" length=0.01500 units=km
New "Line.RBT_2081619616" phases=3 bus1="NODE#462318299.1.2.4" bus2="NODE#2394072668W.1.2.4" linecode="12_3" length=0.02200 units=km
New "Line.RBT_2081619687" phases=3 bus1="NODE#420661670.2.3.4" bus2="NODE#2394072757W.2.3.4" linecode="4_3" length=0.02000 units=km
New "Line.RBT_2081619728" phases=4 bus1="NODE#465784031.1.2.3.4" bus2="NODE#2394072810W.1.2.3.4" linecode="9_4" length=0.02000 units=km
New "Line.RBT_2194122376" phases=3 bus1="NODE#461447621.3.1.4" bus2="NODE#2499790772W.3.1.4" linecode="12_3" length=0.01400 units=km
New "Line.RBT_2194122496" phases=3 bus1="NODE#420661262.1.2.4" bus2="NODE#2499790919W.1.2.4" linecode="12_3" length=0.01500 units=km
New "Line.RBT_2194122523" phases=3 bus1="NODE#452729653.1.2.4" bus2="NODE#2499790951W.1.2.4" linecode="3_3" length=0.01500 units=km
New "Line.RBT_295068211" phases=4 bus1="NODE#460284430.1.2.3.4" bus2="NODE#482599519W.1.2.3.4" linecode="2_4" length=0.01769 units=km
New "Line.RBT_295068216" phases=3 bus1="NODE#460284430.1.2.4" bus2="NODE#482599544W.1.2.4" linecode="4_3" length=0.01140 units=km
New "Line.RBT_295068220" phases=3 bus1="NODE#461449883.1.2.4" bus2="NODE#482599564W.1.2.4" linecode="3_3" length=0.02025 units=km
New "Line.RBT_295068225" phases=2 bus1="NODE#461449883.3.4" bus2="NODE#482599589W.3.4" linecode="8_2" length=0.02302 units=km
New "Line.RBT_295068229" phases=2 bus1="NODE#463034903.1.4" bus2="NODE#482599609W.1.4" linecode="7_2" length=0.02746 units=km
New "Line.RBT_295068234" phases=2 bus1="NODE#420710262.3.4" bus2="NODE#482599634W.3.4" linecode="7_2" length=0.01709 units=km
New "Line.RBT_295068238" phases=2 bus1="NODE#461900330.1.4" bus2="NODE#482599654W.1.4" linecode="7_2" length=0.00806 units=km
New "Line.RBT_295068243" phases=2 bus1="NODE#461668242.3.4" bus2="NODE#482599679W.3.4" linecode="7_2" length=0.00860 units=km
New "Line.RBT_295068247" phases=3 bus1="NODE#461668243.2.3.4" bus2="NODE#482599699W.2.3.4" linecode="14_3" length=0.01616 units=km
New "Line.RBT_295068251" phases=4 bus1="NODE#420713166.1.2.3.4" bus2="NODE#482599719W.1.2.3.4" linecode="9_4" length=0.01603 units=km
New "Line.RBT_295142945" phases=3 bus1="NODE#461449808.1.2.4" bus2="NODE#482865849W.1.2.4" linecode="4_3" length=0.01204 units=km
New "Line.RBT_295142949" phases=3 bus1="NODE#463776574.2.3.4" bus2="NODE#482865869W.2.3.4" linecode="3_3" length=0.01140 units=km
New "Line.RBT_295143219" phases=3 bus1="NODE#462235283.1.2.4" bus2="NODE#482867219W.1.2.4" linecode="14_3" length=0.01513 units=km
New "Line.RBT_295143223" phases=2 bus1="NODE#463776823.2.4" bus2="NODE#482867239W.2.4" linecode="7_2" length=0.01131 units=km
New "Line.RBT_295143489" phases=3 bus1="NODE#464187757.1.2.4" bus2="NODE#482868569W.1.2.4" linecode="3_3" length=0.00970 units=km
New "Line.RBT_295143493" phases=2 bus1="NODE#462586296.3.4" bus2="NODE#482868589W.3.4" linecode="7_2" length=0.01389 units=km
New "Line.RBT_295225619" phases=3 bus1="NODE#461264537.1.2.4" bus2="NODE#482897053W.1.2.4" linecode="3_3" length=0.01221 units=km
New "Line.RBT_295225623" phases=2 bus1="NODE#420710727.1.4" bus2="NODE#482897073W.1.4" linecode="8_2" length=0.01965 units=km
New "Line.RBT_295226171" phases=2 bus1="NODE#465486100.1.4" bus2="NODE#482938459W.1.4" linecode="7_2" length=0.01118 units=km
New "Line.RBT_295226302" phases=3 bus1="NODE#461446307.1.2.4" bus2="NODE#482939114W.1.2.4" linecode="3_3" length=0.01118 units=km
New "Line.RBT_295226306" phases=3 bus1="NODE#463882159.1.2.4" bus2="NODE#482939134W.1.2.4" linecode="14_3" length=0.01500 units=km
New "Line.RBT_295226711" phases=2 bus1="NODE#462889818.1.4" bus2="NODE#482941159W.1.4" linecode="7_2" length=0.01204 units=km
New "Line.RBT_295226985" phases=2 bus1="NODE#467111006.1.4" bus2="NODE#482976881W.1.4" linecode="7_2" length=0.01612 units=km
New "Line.RBT_295226989" phases=3 bus1="NODE#463460419.1.2.4" bus2="NODE#482976901W.1.2.4" linecode="14_3" length=0.01140 units=km
New "Line.RBT_295227120" phases=2 bus1="NODE#453220893.3.4" bus2="NODE#482977556W.3.4" linecode="7_2" length=0.01030 units=km
New "Line.RBT_295227124" phases=3 bus1="NODE#463881839.2.3.4" bus2="NODE#482977576W.2.3.4" linecode="15_3" length=0.00906 units=km
New "Line.RBT_295142956" phases=2 bus1="NODE#463776524.3.4" bus2="NODE#482865904W.3.4" linecode="7_2" length=0.01204 units=km
New "Line.RBT_295143226" phases=3 bus1="NODE#461447016.2.3.4" bus2="NODE#482867254W.2.3.4" linecode="3_3" length=0.01342 units=km
New "Line.RBT_295143230" phases=2 bus1="NODE#461447017.3.4" bus2="NODE#482867274W.3.4" linecode="7_2" length=0.01131 units=km
New "Line.RBT_295143500" phases=2 bus1="NODE#466363799.1.4" bus2="NODE#482868624W.1.4" linecode="7_2" length=0.01772 units=km
New "Line.RBT_295143504" phases=2 bus1="NODE#461789360.3.4" bus2="NODE#482868644W.3.4" linecode="6_2" length=0.00922 units=km
New "Line.RBT_295225630" phases=2 bus1="NODE#461572667.1.4" bus2="NODE#482897108W.1.4" linecode="8_2" length=0.01965 units=km
New "Line.RBT_295225634" phases=2 bus1="NODE#420422196.2.4" bus2="NODE#482897128W.2.4" linecode="6_2" length=0.01700 units=km
New "Line.RBT_295226040" phases=4 bus1="NODE#420712875.1.2.3.4" bus2="NODE#482937804W.1.2.3.4" linecode="1_4" length=0.01703 units=km
New "Line.RBT_295226178" phases=2 bus1="NODE#461571698.3.4" bus2="NODE#482938494W.3.4" linecode="7_2" length=0.01581 units=km
New "Line.RBT_295226182" phases=2 bus1="NODE#466363698.1.4" bus2="NODE#482938514W.1.4" linecode="7_2" length=0.01300 units=km
New "Line.RBT_295226313" phases=3 bus1="NODE#461572522.1.2.4" bus2="NODE#482939169W.1.2.4" linecode="27_3" length=0.01414 units=km
New "Line.RBT_295226317" phases=3 bus1="NODE#1679757380.1.2.4" bus2="NODE#482939189W.1.2.4" linecode="15_3" length=0.01562 units=km
New "Line.RBT_295226726" phases=4 bus1="NODE#462786021.1.2.3.4" bus2="NODE#482941234W.1.2.3.4" linecode="2_4" length=0.01204 units=km
New "Line.RBT_295227127" phases=2 bus1="NODE#463881839.3.4" bus2="NODE#482977591W.3.4" linecode="7_2" length=0.01082 units=km
New "Line.RBT_295227131" phases=3 bus1="NODE#463567805.1.2.4" bus2="NODE#482977611W.1.2.4" linecode="3_3" length=0.01005 units=km
New "Line.RBT_295227135" phases=2 bus1="NODE#462785850.3.4" bus2="NODE#482977631W.3.4" linecode="7_2" length=0.01393 units=km
New "Line.RBT_295142007" phases=2 bus1="NODE#420661148.2.4" bus2="NODE#482826805W.2.4" linecode="7_2" length=0.01000 units=km
New "Line.RBT_295142011" phases=3 bus1="NODE#463140049.1.2.4" bus2="NODE#482826825W.1.2.4" linecode="3_3" length=0.01082 units=km
New "Line.RBT_295142555" phases=2 bus1="NODE#462234987.1.4" bus2="NODE#482829547W.1.4" linecode="7_2" length=0.00943 units=km
New "Line.RBT_295142559" phases=2 bus1="NODE#463775281.3.4" bus2="NODE#482829567W.3.4" linecode="7_2" length=0.01315 units=km
New "Line.RBT_295142695" phases=3 bus1="NODE#461450371.1.2.4" bus2="NODE#482864599W.1.2.4" linecode="3_3" length=0.01456 units=km
New "Line.RBT_295143235" phases=2 bus1="NODE#461668138.2.4" bus2="NODE#482867299W.2.4" linecode="7_2" length=0.01300 units=km
New "Line.RBT_295143239" phases=2 bus1="NODE#462684818.2.4" bus2="NODE#482867319W.2.4" linecode="7_2" length=0.01118 units=km
New "Line.RBT_295143507" phases=3 bus1="NODE#420711294.3.1.4" bus2="NODE#482868659W.3.1.4" linecode="3_3" length=0.01803 units=km
New "Line.RBT_295143511" phases=2 bus1="NODE#420391542.1.4" bus2="NODE#482868679W.1.4" linecode="7_2" length=0.02012 units=km
New "Line.RBT_295226185" phases=2 bus1="NODE#464185936.3.4" bus2="NODE#482938529W.3.4" linecode="7_2" length=0.01005 units=km
New "Line.RBT_295226321" phases=2 bus1="NODE#463881254.2.4" bus2="NODE#482939209W.2.4" linecode="7_2" length=0.01253 units=km
New "Line.RBT_295226325" phases=2 bus1="NODE#463881255.1.4" bus2="NODE#482939229W.1.4" linecode="8_2" length=0.01204 units=km
New "Line.RBT_295226729" phases=3 bus1="NODE#462786021.1.2.4" bus2="NODE#482941249W.1.2.4" linecode="17_3" length=0.01082 units=km
New "Line.RBT_295226733" phases=3 bus1="NODE#420661226.2.3.4" bus2="NODE#482941269W.2.3.4" linecode="14_3" length=0.01487 units=km
New "Line.RBT_295226869" phases=4 bus1="NODE#463775387.1.2.3.4" bus2="NODE#482976301W.1.2.3.4" linecode="2_4" length=0.01342 units=km
New "Line.RBT_295227137" phases=2 bus1="NODE#461992041.1.4" bus2="NODE#482977641W.1.4" linecode="7_2" length=0.01077 units=km
New "Line.RBT_295227141" phases=2 bus1="NODE#461992041.2.4" bus2="NODE#482977661W.2.4" linecode="6_2" length=0.01105 units=km
New "Line.RBT_295142015" phases=2 bus1="NODE#466580220.3.4" bus2="NODE#482826845W.3.4" linecode="7_2" length=0.01140 units=km
New "Line.RBT_295142019" phases=2 bus1="NODE#466580220.3.4" bus2="NODE#482826865W.3.4" linecode="8_2" length=0.01077 units=km
New "Line.RBT_295142563" phases=2 bus1="NODE#464496127.1.4" bus2="NODE#482829587W.1.4" linecode="8_2" length=0.01118 units=km
New "Line.RBT_295142567" phases=3 bus1="NODE#461572182.1.2.4" bus2="NODE#482829607W.1.2.4" linecode="14_3" length=0.01432 units=km
New "Line.RBT_295142698" phases=2 bus1="NODE#461450370.2.4" bus2="NODE#482864614W.2.4" linecode="7_2" length=0.01118 units=km
New "Line.RBT_295142702" phases=4 bus1="NODE#420685009.1.2.3.4" bus2="NODE#482864634W.1.2.3.4" linecode="16_4" length=0.01789 units=km
New "Line.RBT_295142706" phases=2 bus1="NODE#462234987.2.4" bus2="NODE#482864654W.2.4" linecode="7_2" length=0.00985 units=km
New "Line.RBT_295142837" phases=2 bus1="NODE#452855615.2.4" bus2="NODE#482865309W.2.4" linecode="7_2" length=0.01746 units=km
New "Line.RBT_295142841" phases=3 bus1="NODE#461450375.2.3.4" bus2="NODE#482865329W.2.3.4" linecode="3_3" length=0.01315 units=km
New "Line.RBT_295143242" phases=2 bus1="NODE#462231943.1.4" bus2="NODE#482867334W.1.4" linecode="8_2" length=0.01910 units=km
New "Line.RBT_295143246" phases=2 bus1="NODE#463775439.2.4" bus2="NODE#482867354W.2.4" linecode="6_2" length=0.01552 units=km
New "Line.RBT_295226329" phases=2 bus1="NODE#1679757381.1.4" bus2="NODE#482939249W.1.4" linecode="7_2" length=0.00985 units=km
New "Line.RBT_295226333" phases=2 bus1="NODE#467111831.1.4" bus2="NODE#482939269W.1.4" linecode="7_2" length=0.01200 units=km
New "Line.RBT_295226603" phases=3 bus1="NODE#462234027.1.2.4" bus2="NODE#482940619W.1.2.4" linecode="4_3" length=0.00806 units=km
New "Line.RBT_295226607" phases=2 bus1="NODE#463775372.1.4" bus2="NODE#482940639W.1.4" linecode="8_2" length=0.01300 units=km
New "Line.RBT_295226738" phases=3 bus1="NODE#420661226.1.2.4" bus2="NODE#482941294W.1.2.4" linecode="3_3" length=0.01237 units=km
New "Line.RBT_295226742" phases=2 bus1="NODE#456694540.1.4" bus2="NODE#482941314W.1.4" linecode="8_2" length=0.01456 units=km
New "Line.RBT_295226873" phases=4 bus1="NODE#461898150.1.2.3.4" bus2="NODE#482976321W.1.2.3.4" linecode="16_4" length=0.02608 units=km
New "Line.RBT_295226877" phases=2 bus1="NODE#420661184.2.4" bus2="NODE#482976341W.2.4" linecode="7_2" length=0.01526 units=km
New "Line.RBT_295227148" phases=3 bus1="NODE#420661298.2.3.4" bus2="NODE#482977696W.2.3.4" linecode="3_3" length=0.01697 units=km
New "Line.RBT_295142024" phases=3 bus1="NODE#466364545.2.3.4" bus2="NODE#482826890W.2.3.4" linecode="3_3" length=0.01513 units=km
New "Line.RBT_295142572" phases=2 bus1="NODE#462234018.3.4" bus2="NODE#482829632W.3.4" linecode="8_2" length=0.01100 units=km
New "Line.RBT_295142576" phases=3 bus1="NODE#462234017.3.1.4" bus2="NODE#482829652W.3.1.4" linecode="15_3" length=0.01503 units=km
New "Line.RBT_295142708" phases=3 bus1="NODE#462234987.1.2.4" bus2="NODE#482864664W.1.2.4" linecode="15_3" length=0.01265 units=km
New "Line.RBT_295142712" phases=3 bus1="NODE#462234062.1.2.4" bus2="NODE#482864684W.1.2.4" linecode="3_3" length=0.01389 units=km
New "Line.RBT_295142844" phases=3 bus1="NODE#464982939.1.2.4" bus2="NODE#482865344W.1.2.4" linecode="3_3" length=0.00922 units=km
New "Line.RBT_295142848" phases=2 bus1="NODE#420685015.2.4" bus2="NODE#482865364W.2.4" linecode="7_2" length=0.01887 units=km
New "Line.RBT_295226610" phases=3 bus1="NODE#420661334.1.2.4" bus2="NODE#482940654W.1.2.4" linecode="3_3" length=0.01315 units=km
New "Line.RBT_295226614" phases=2 bus1="NODE#461572162.1.4" bus2="NODE#482940674W.1.4" linecode="8_2" length=0.01581 units=km
New "Line.RBT_295226746" phases=2 bus1="NODE#461991902.1.4" bus2="NODE#482941334W.1.4" linecode="7_2" length=0.01565 units=km
New "Line.RBT_295226750" phases=2 bus1="NODE#461991901.3.4" bus2="NODE#482941354W.3.4" linecode="7_2" length=0.01204 units=km
New "Line.RBT_295226882" phases=2 bus1="NODE#462232927.1.4" bus2="NODE#482976366W.1.4" linecode="7_2" length=0.01315 units=km
New "Line.RBT_295226886" phases=4 bus1="NODE#463880900.1.2.3.4" bus2="NODE#482976386W.1.2.3.4" linecode="2_4" length=0.01664 units=km
New "Line.RBT_295142852" phases=3 bus1="NODE#465683497.3.1.4" bus2="NODE#482865384W.3.1.4" linecode="4_3" length=0.01273 units=km
New "Line.RBT_295142856" phases=3 bus1="NODE#462788886.2.3.4" bus2="NODE#482865404W.2.3.4" linecode="3_3" length=0.01432 units=km
New "Line.RBT_295226618" phases=3 bus1="NODE#451004516.1.2.4" bus2="NODE#482940694W.1.2.4" linecode="3_3" length=0.01345 units=km
New "Line.RBT_295226753" phases=3 bus1="NODE#464867916.2.3.4" bus2="NODE#482941369W.2.3.4" linecode="3_3" length=0.01442 units=km
New "Line.RBT_295226892" phases=3 bus1="NODE#420661187.1.2.4" bus2="NODE#482976416W.1.2.4" linecode="3_3" length=0.01393 units=km
New "Line.RBT_295226896" phases=2 bus1="NODE#420661232.1.4" bus2="NODE#482976436W.1.4" linecode="7_2" length=0.01030 units=km
New "Line.RBT_295141772" phases=3 bus1="NODE#420661439.1.2.4" bus2="NODE#482799860W.1.2.4" linecode="3_3" length=0.01703 units=km
New "Line.RBT_295226901" phases=2 bus1="NODE#463141039.2.4" bus2="NODE#482976461W.2.4" linecode="8_2" length=0.01414 units=km
New "Line.RBT_295226905" phases=3 bus1="NODE#461667978.1.2.4" bus2="NODE#482976481W.1.2.4" linecode="4_3" length=0.01334 units=km
New "Line.RBT_295141640" phases=4 bus1="NODE#420683251.1.2.3.4" bus2="NODE#482799200W.1.2.3.4" linecode="10_4" length=0.01360 units=km
New "Line.RBT_295141644" phases=4 bus1="NODE#482799214.1.2.3.4" bus2="NODE#482799220W.1.2.3.4" linecode="2_4" length=0.01726 units=km
New "Line.RBT_295226232" phases=3 bus1="NODE#463141650.2.3.4" bus2="NODE#482938764W.2.3.4" linecode="3_3" length=0.01118 units=km
New "Line.RBT_295226506" phases=2 bus1="NODE#462893137.1.4" bus2="NODE#482940134W.1.4" linecode="7_2" length=0.01166 units=km
New "Line.RBT_295226907" phases=2 bus1="NODE#461667978.2.4" bus2="NODE#482976491W.2.4" linecode="7_2" length=0.01208 units=km
New "Line.RBT_295226911" phases=2 bus1="NODE#461993907.2.4" bus2="NODE#482976511W.2.4" linecode="8_2" length=0.01253 units=km
New "Line.RBT_295226236" phases=3 bus1="NODE#420712884.1.2.4" bus2="NODE#482938784W.1.2.4" linecode="4_3" length=0.01628 units=km
New "Line.RBT_295226240" phases=4 bus1="NODE#461993866.1.2.3.4" bus2="NODE#482938804W.1.2.3.4" linecode="2_4" length=0.01208 units=km
New "Line.RBT_295226508" phases=3 bus1="NODE#462232518.1.2.4" bus2="NODE#482940144W.1.2.4" linecode="3_3" length=0.01265 units=km
New "Line.RBT_295226512" phases=3 bus1="NODE#420712275.1.2.4" bus2="NODE#482940164W.1.2.4" linecode="3_3" length=0.01526 units=km
New "Line.RBT_295226644" phases=3 bus1="NODE#462684794.1.2.4" bus2="NODE#482940824W.1.2.4" linecode="4_3" length=0.01020 units=km
New "Line.RBT_295226648" phases=3 bus1="NODE#461385080.1.2.4" bus2="NODE#482940844W.1.2.4" linecode="15_3" length=0.01487 units=km
New "Line.RBT_295226780" phases=3 bus1="NODE#460896898.1.2.4" bus2="NODE#482941504W.1.2.4" linecode="3_3" length=0.00922 units=km
New "Line.RBT_295226784" phases=2 bus1="NODE#460896897.1.4" bus2="NODE#482941524W.1.4" linecode="7_2" length=0.01487 units=km
New "Line.RBT_295226916" phases=2 bus1="NODE#465485776.1.4" bus2="NODE#482976536W.1.4" linecode="7_2" length=0.00860 units=km
New "Line.RBT_295226920" phases=2 bus1="NODE#462099573.2.4" bus2="NODE#482976556W.2.4" linecode="7_2" length=0.01342 units=km
New "Line.RBT_295143026" phases=4 bus1="NODE#460899647.1.2.3.4" bus2="NODE#482866254W.1.2.3.4" linecode="2_4" length=0.00900 units=km
New "Line.RBT_295226387" phases=2 bus1="NODE#453090897.1.4" bus2="NODE#482939539W.1.4" linecode="7_2" length=0.01237 units=km
New "Line.RBT_295226518" phases=2 bus1="NODE#461571917.1.4" bus2="NODE#482940194W.1.4" linecode="7_2" length=0.01063 units=km
New "Line.RBT_295226522" phases=2 bus1="NODE#462890033.1.4" bus2="NODE#482940214W.1.4" linecode="7_2" length=0.01170 units=km
New "Line.RBT_295226653" phases=4 bus1="NODE#463240967.1.2.3.4" bus2="NODE#482940869W.1.2.3.4" linecode="10_4" length=0.01044 units=km
New "Line.RBT_295226788" phases=2 bus1="NODE#464188519.2.4" bus2="NODE#482941544W.2.4" linecode="8_2" length=0.01000 units=km
New "Line.RBT_295226792" phases=2 bus1="NODE#462232952.2.4" bus2="NODE#482941564W.2.4" linecode="7_2" length=0.01030 units=km
New "Line.RBT_295226923" phases=2 bus1="NODE#462099573.2.4" bus2="NODE#482976571W.2.4" linecode="8_2" length=0.01628 units=km
New "Line.RBT_295227062" phases=2 bus1="NODE#463777473.2.4" bus2="NODE#482977266W.2.4" linecode="7_2" length=0.01208 units=km
New "Line.RBT_295227066" phases=2 bus1="NODE#420683269.2.4" bus2="NODE#482977286W.2.4" linecode="7_2" length=0.01221 units=km
New "Line.RBT_295142349" phases=3 bus1="NODE#462234013.1.2.4" bus2="NODE#482828517W.1.2.4" linecode="3_3" length=0.01404 units=km
New "Line.RBT_295142353" phases=4 bus1="NODE#465280317.1.2.3.4" bus2="NODE#482828537W.1.2.3.4" linecode="10_4" length=0.01513 units=km
New "Line.RBT_295143031" phases=3 bus1="NODE#463140785.3.1.4" bus2="NODE#482866279W.3.1.4" linecode="3_3" length=0.01404 units=km
New "Line.RBT_295226121" phases=4 bus1="NODE#461572133.1.2.3.4" bus2="NODE#482938209W.1.2.3.4" linecode="10_4" length=0.01020 units=km
New "Line.RBT_295226525" phases=3 bus1="NODE#462890033.1.2.4" bus2="NODE#482940229W.1.2.4" linecode="3_3" length=0.01118 units=km
New "Line.RBT_295226797" phases=2 bus1="NODE#464186287.3.4" bus2="NODE#482941589W.3.4" linecode="7_2" length=0.01204 units=km
New "Line.RBT_295226801" phases=3 bus1="NODE#420712911.1.2.4" bus2="NODE#482941609W.1.2.4" linecode="3_3" length=0.01603 units=km
New "Line.RBT_295227069" phases=4 bus1="NODE#463141134.1.2.3.4" bus2="NODE#482977301W.1.2.3.4" linecode="10_4" length=0.01530 units=km
New "Line.RBT_295227073" phases=2 bus1="NODE#464497901.3.4" bus2="NODE#482977321W.3.4" linecode="7_2" length=0.01393 units=km
New "Line.RBT_295142358" phases=2 bus1="NODE#462233563.3.4" bus2="NODE#482828562W.3.4" linecode="7_2" length=0.01433 units=km
New "Line.RBT_295142362" phases=2 bus1="NODE#463142155.2.4" bus2="NODE#482828582W.2.4" linecode="7_2" length=0.01217 units=km
New "Line.RBT_295225578" phases=3 bus1="NODE#462585707.2.3.4" bus2="NODE#482896848W.2.3.4" linecode="4_3" length=0.00762 units=km
New "Line.RBT_295225582" phases=2 bus1="NODE#461449933.2.4" bus2="NODE#482896868W.2.4" linecode="7_2" length=0.01082 units=km
New "Line.RBT_295225718" phases=4 bus1="NODE#462102882.1.2.3.4" bus2="NODE#482897548W.1.2.3.4" linecode="2_4" length=0.01513 units=km
New "Line.RBT_295226126" phases=4 bus1="NODE#464051982.1.2.3.4" bus2="NODE#482938234W.1.2.3.4" linecode="2_4" length=0.01393 units=km
New "Line.RBT_295226130" phases=2 bus1="NODE#464614721.3.4" bus2="NODE#482938254W.3.4" linecode="7_2" length=0.01063 units=km
New "Line.RBT_295226535" phases=3 bus1="NODE#460625474.3.1.4" bus2="NODE#482940279W.3.1.4" linecode="3_3" length=0.01421 units=km
New "Line.RBT_295226539" phases=3 bus1="NODE#420661331.1.2.4" bus2="NODE#482940299W.1.2.4" linecode="14_3" length=0.01204 units=km
New "Line.RBT_295226805" phases=4 bus1="NODE#462233097.1.2.3.4" bus2="NODE#482941629W.1.2.3.4" linecode="9_4" length=0.01166 units=km
New "Line.RBT_295226809" phases=2 bus1="NODE#462099962.3.4" bus2="NODE#482941649W.3.4" linecode="7_2" length=0.01315 units=km
New "Line.RBT_295227079" phases=2 bus1="NODE#461785705.1.4" bus2="NODE#482977351W.1.4" linecode="7_2" length=0.01360 units=km
New "Line.RBT_295227083" phases=2 bus1="NODE#463141395.2.4" bus2="NODE#482977371W.2.4" linecode="8_2" length=0.01992 units=km
New "Line.RBT_295142366" phases=2 bus1="NODE#462102183.1.4" bus2="NODE#482828602W.1.4" linecode="7_2" length=0.01649 units=km
New "Line.RBT_295142370" phases=3 bus1="NODE#461897470.3.1.4" bus2="NODE#482828622W.3.1.4" linecode="15_3" length=0.01140 units=km
New "Line.RBT_295142916" phases=2 bus1="NODE#461447116.1.4" bus2="NODE#482865704W.1.4" linecode="7_2" length=0.01273 units=km
New "Line.RBT_295225586" phases=2 bus1="NODE#466577490.3.4" bus2="NODE#482896888W.3.4" linecode="5_2" length=0.01345 units=km
New "Line.RBT_295225590" phases=2 bus1="NODE#464307363.2.4" bus2="NODE#482896908W.2.4" linecode="7_2" length=0.02508 units=km
New "Line.RBT_295226134" phases=2 bus1="NODE#462233897.3.4" bus2="NODE#482938274W.3.4" linecode="7_2" length=0.01140 units=km
New "Line.RBT_295226138" phases=4 bus1="NODE#465482929.1.2.3.4" bus2="NODE#482938294W.1.2.3.4" linecode="2_4" length=0.01668 units=km
New "Line.RBT_295226542" phases=2 bus1="NODE#464497871.1.4" bus2="NODE#482940314W.1.4" linecode="6_2" length=0.01487 units=km
New "Line.RBT_295226546" phases=4 bus1="NODE#456835094.1.2.3.4" bus2="NODE#482940334W.1.2.3.4" linecode="16_4" length=0.01273 units=km
New "Line.RBT_295226814" phases=4 bus1="NODE#420661481.1.2.3.4" bus2="NODE#482941674W.1.2.3.4" linecode="2_4" length=0.00707 units=km
New "Line.RBT_295226818" phases=4 bus1="NODE#456694541.1.2.3.4" bus2="NODE#482941694W.1.2.3.4" linecode="2_4" length=0.01360 units=km
New "Line.RBT_295227086" phases=4 bus1="NODE#463141395.1.2.3.4" bus2="NODE#482977386W.1.2.3.4" linecode="2_4" length=0.01345 units=km
New "Line.RBT_295227090" phases=2 bus1="NODE#461994572.2.4" bus2="NODE#482977406W.2.4" linecode="7_2" length=0.01166 units=km
New "Line.RBT_295142101" phases=3 bus1="NODE#461261767.1.2.4" bus2="NODE#482827275W.1.2.4" linecode="4_3" length=0.01140 units=km
New "Line.RBT_295142375" phases=2 bus1="NODE#1214420878.1.4" bus2="NODE#482828647W.1.4" linecode="7_2" length=0.01500 units=km
New "Line.RBT_295142379" phases=2 bus1="NODE#1214420812.3.4" bus2="NODE#482828667W.3.4" linecode="8_2" length=0.01082 units=km
New "Line.RBT_295142921" phases=2 bus1="NODE#461995121.3.4" bus2="NODE#482865729W.3.4" linecode="7_2" length=0.01803 units=km
New "Line.RBT_295142925" phases=2 bus1="NODE#462235623.3.4" bus2="NODE#482865749W.3.4" linecode="7_2" length=0.01273 units=km
New "Line.RBT_295225595" phases=2 bus1="NODE#420711318.3.4" bus2="NODE#482896933W.3.4" linecode="7_2" length=0.02474 units=km
New "Line.RBT_295225599" phases=2 bus1="NODE#420711318.1.4" bus2="NODE#482896953W.1.4" linecode="7_2" length=0.03000 units=km
New "Line.RBT_295226552" phases=3 bus1="NODE#420713232.2.3.4" bus2="NODE#482940364W.2.3.4" linecode="3_3" length=0.01082 units=km
New "Line.RBT_295226556" phases=2 bus1="NODE#460624783.2.4" bus2="NODE#482940384W.2.4" linecode="7_2" length=0.01811 units=km
New "Line.RBT_295226691" phases=2 bus1="NODE#465083382.1.4" bus2="NODE#482941059W.1.4" linecode="8_2" length=0.00922 units=km
New "Line.RBT_295226822" phases=2 bus1="NODE#464185847.1.4" bus2="NODE#482941714W.1.4" linecode="8_2" length=0.01487 units=km
New "Line.RBT_295226826" phases=2 bus1="NODE#420661274.2.4" bus2="NODE#482941734W.2.4" linecode="7_2" length=0.01910 units=km
New "Line.RBT_295227096" phases=2 bus1="NODE#463034959.3.4" bus2="NODE#482977436W.3.4" linecode="7_2" length=0.01513 units=km
New "Line.RBT_295227100" phases=3 bus1="NODE#463034959.1.2.4" bus2="NODE#482977456W.1.2.4" linecode="3_3" length=0.01281 units=km
New "Line.RBT_295142382" phases=2 bus1="NODE#1214420879.3.4" bus2="NODE#482828682W.3.4" linecode="7_2" length=0.01513 units=km
New "Line.RBT_295142386" phases=4 bus1="NODE#461261767.1.2.3.4" bus2="NODE#482828702W.1.2.3.4" linecode="2_4" length=0.01063 units=km
New "Line.RBT_295142928" phases=3 bus1="NODE#461995121.3.1.4" bus2="NODE#482865764W.3.1.4" linecode="14_3" length=0.01237 units=km
New "Line.RBT_295142932" phases=2 bus1="NODE#462235622.2.4" bus2="NODE#482865784W.2.4" linecode="8_2" length=0.01315 units=km
New "Line.RBT_295226558" phases=3 bus1="NODE#456206159.3.1.4" bus2="NODE#482940394W.3.1.4" linecode="4_3" length=0.01712 units=km
New "Line.RBT_295226562" phases=3 bus1="NODE#453090898.1.2.4" bus2="NODE#482940414W.1.2.4" linecode="4_3" length=0.01253 units=km
New "Line.RBT_295226694" phases=3 bus1="NODE#465083382.1.2.4" bus2="NODE#482941074W.1.2.4" linecode="14_3" length=0.00985 units=km
New "Line.RBT_295226698" phases=2 bus1="NODE#461571903.1.4" bus2="NODE#482941094W.1.4" linecode="7_2" length=0.01315 units=km
New "Line.RBT_295226830" phases=3 bus1="NODE#420661274.1.2.4" bus2="NODE#482941754W.1.2.4" linecode="3_3" length=0.01970 units=km
New "Line.RBT_295226834" phases=2 bus1="NODE#466802446.3.4" bus2="NODE#482941774W.3.4" linecode="8_2" length=0.01217 units=km
New "Line.RBT_295226970" phases=3 bus1="NODE#462317919.2.3.4" bus2="NODE#482976806W.2.3.4" linecode="15_3" length=0.01389 units=km
New "Line.RBT_295227102" phases=3 bus1="NODE#420661193.2.3.4" bus2="NODE#482977466W.2.3.4" linecode="3_3" length=0.01300 units=km
New "Line.RBT_295227106" phases=3 bus1="NODE#420661193.2.3.4" bus2="NODE#482977486W.2.3.4" linecode="3_3" length=0.01476 units=km
New "Line.RBT_295142936" phases=2 bus1="NODE#465785258.2.4" bus2="NODE#482865804W.2.4" linecode="7_2" length=0.02159 units=km
New "Line.RBT_295142940" phases=4 bus1="NODE#465785258.1.2.3.4" bus2="NODE#482865824W.1.2.3.4" linecode="9_4" length=0.02617 units=km
New "Line.RBT_295143208" phases=2 bus1="NODE#462103103.2.4" bus2="NODE#482867164W.2.4" linecode="7_2" length=0.01414 units=km
New "Line.RBT_295143212" phases=3 bus1="NODE#420711276.1.2.4" bus2="NODE#482867184W.1.2.4" linecode="14_3" length=0.02040 units=km
New "Line.RBT_295225614" phases=2 bus1="NODE#461264538.2.4" bus2="NODE#482897028W.2.4" linecode="7_2" length=0.00949 units=km
New "Line.RBT_295226294" phases=2 bus1="NODE#462234188.2.4" bus2="NODE#482939074W.2.4" linecode="8_2" length=0.01164 units=km
New "Line.RBT_295226298" phases=2 bus1="NODE#462234187.1.4" bus2="NODE#482939094W.1.4" linecode="8_2" length=0.01030 units=km
New "Line.RBT_295226566" phases=4 bus1="NODE#463333011.1.2.3.4" bus2="NODE#482940434W.1.2.3.4" linecode="2_4" length=0.01581 units=km
New "Line.RBT_295226702" phases=2 bus1="NODE#461571902.2.4" bus2="NODE#482941114W.2.4" linecode="8_2" length=0.01345 units=km
New "Line.RBT_295226706" phases=3 bus1="NODE#420661181.1.2.4" bus2="NODE#482941134W.1.2.4" linecode="3_3" length=0.02154 units=km
New "Line.RBT_295226838" phases=3 bus1="NODE#461447427.1.2.4" bus2="NODE#482941794W.1.2.4" linecode="14_3" length=0.01503 units=km
New "Line.RBT_295226974" phases=3 bus1="NODE#420661235.1.2.4" bus2="NODE#482976826W.1.2.4" linecode="3_3" length=0.01265 units=km
New "Line.RBT_295226978" phases=4 bus1="NODE#456571964.1.2.3.4" bus2="NODE#482976846W.1.2.3.4" linecode="2_4" length=0.01334 units=km