New "Line.SMT_1689590278" phases=3 bus1="NODE#2015114208.1.2.3" bus2="NODE#2015114266.1.2.3" linecode="38_3" length=0.00200 units=km
New "Line.SMT_247808858" phases=3 bus1="NODE#445011477.1.2.3" bus2="NODE#445010991.1.2.3" linecode="46_3" length=0.03625 units=km
New "Line.SMT_246684459" phases=3 bus1="NODE#433296879.1.2.3" bus2="NODE#439763061.1.2.3" linecode="59_3" length=0.03162 units=km
New "Line.SMT_245489117" phases=3 bus1="NODE#433472428.1.2.3" bus2="NODE#433472423.1.2.3" linecode="35_3" length=0.03302 units=km
New "Line.SMT_247808848" phases=3 bus1="NODE#445011925.1.2.3" bus2="NODE#445011926.1.2.3" linecode="48_3" length=0.01456 units=km
New "Line.SMT_243624933" phases=3 bus1="NODE#424245680.1.2.3" bus2="NODE#2316029041.1.2.3" linecode="48_3" length=0.03401 units=km
New "Line.SMT_1094029690" phases=3 bus1="NODE#1361434537.1.2.3" bus2="NODE#1361434532.1.2.3" linecode="35_3" length=0.00800 units=km
New "Line.SMT_348421388" phases=3 bus1="NODE#445011322.1.2.3" bus2="NODE#544639225.1.2.3" linecode="46_3" length=0.00052 units=km
New "Line.SMT_245488906" phases=3 bus1="NODE#433471373.1.2.3" bus2="NODE#424245131.1.2.3" linecode="35_3" length=0.03384 units=km
New "Line.SMT_243625065" phases=3 bus1="NODE#424246344.1.2.3" bus2="NODE#424246345.1.2.3" linecode="48_3" length=0.03105 units=km
New "Line.SMT_247127392" phases=3 bus1="NODE#442497507.1.2.3" bus2="NODE#442497541.1.2.3" linecode="77_3" length=0.02746 units=km
New "Line.SMT_1555106510" phases=3 bus1="NODE#1856060604.1.2.3" bus2="NODE#1856060615.1.2.3" linecode="38_3" length=0.02900 units=km
New "Line.SMT_347582184" phases=3 bus1="NODE#444955884.1.2.3" bus2="NODE#542538340.1.2.3" linecode="46_3" length=0.00052 units=km
New "Line.SMT_245699228" phases=3 bus1="NODE#434600367.1.2.3" bus2="NODE#434600368.1.2.3" linecode="77_3" length=0.03500 units=km
New "Line.SMT_245489576" phases=3 bus1="NODE#537935146.1.2.3" bus2="NODE#433474728.1.2.3" linecode="35_3" length=0.00049 units=km
New "Line.SMT_247809150" phases=3 bus1="NODE#445056379.1.2.3" bus2="NODE#445056380.1.2.3" linecode="46_3" length=0.02800 units=km
New "Line.SMT_247808958" phases=3 bus1="NODE#445012475.1.2.3" bus2="NODE#445012476.1.2.3" linecode="46_3" length=0.03640 units=km
New "Line.SMT_247808916" phases=1 bus1="NODE#445012265.3" bus2="NODE#445012260.3" linecode="1193_1" length=0.02729 units=km
New "Line.SMT_245489031" phases=3 bus1="NODE#433471434.1.2.3" bus2="NODE#433471458.1.2.3" linecode="35_3" length=0.03384 units=km
New "Line.SMT_348729992" phases=1 bus1="NODE#433473272.3" bus2="NODE#545462400.3" linecode="1193_1" length=0.00052 units=km
New "Line.SMT_247807317" phases=3 bus1="NODE#444896912.1.2.3" bus2="NODE#444896913.1.2.3" linecode="48_3" length=0.01868 units=km
New "Line.SMT_1660335391" phases=1 bus1="NODE#1981522703.3" bus2="NODE#1981522672.3" linecode="1222_1" length=0.03500 units=km
New "Line.SMT_247808488" phases=3 bus1="NODE#445009992.1.2.3" bus2="NODE#445009961.1.2.3" linecode="46_3" length=0.03401 units=km
New "Line.SMT_247808436" phases=3 bus1="NODE#424246390.1.2.3" bus2="NODE#442497676.1.2.3" linecode="48_3" length=0.03800 units=km
New "Line.SMT_247807229" phases=3 bus1="NODE#444896472.1.2.3" bus2="NODE#444896437.1.2.3" linecode="48_3" length=0.03158 units=km
New "Line.SMT_247808659" phases=3 bus1="NODE#445010976.1.2.3" bus2="NODE#445010977.1.2.3" linecode="46_3" length=0.03362 units=km
New "Line.SMT_247391747" phases=3 bus1="NODE#1361434537.1.2.3" bus2="NODE#443093679.1.2.3" linecode="40_3" length=0.03600 units=km
New "Line.SMT_245488895" phases=3 bus1="NODE#433471318.1.2.3" bus2="NODE#433471319.1.2.3" linecode="35_3" length=0.03499 units=km
New "Line.SMT_245489264" phases=1 bus1="NODE#1981522202.3" bus2="NODE#1981522216.3" linecode="1192_1" length=0.03034 units=km
New "Line.SMT_245489175" phases=3 bus1="NODE#433472718.1.2.3" bus2="NODE#433472719.1.2.3" linecode="35_3" length=0.02012 units=km
New "Line.SMT_247808920" phases=1 bus1="NODE#445012285.3" bus2="NODE#445012286.3" linecode="1193_1" length=0.03245 units=km
New "Line.SMT_243624983" phases=3 bus1="NODE#424245856.1.2.3" bus2="NODE#424245920.1.2.3" linecode="48_3" length=0.02617 units=km
New "Line.SMT_243624810" phases=3 bus1="NODE#424245061.1.2.3" bus2="NODE#424245062.1.2.3" linecode="78_3" length=0.02802 units=km
New "Line.SMT_245699232" phases=1 bus1="NODE#434600387.2" bus2="NODE#434600388.2" linecode="1241_1" length=0.02773 units=km
New "Line.SMT_247808591" phases=3 bus1="NODE#444956619.1.2.3" bus2="NODE#445010637.1.2.3" linecode="46_3" length=0.03102 units=km
New "Line.SMT_247127498" phases=3 bus1="NODE#442497542.1.2.3" bus2="NODE#442497516.1.2.3" linecode="77_3" length=0.03265 units=km
New "Line.SMT_247808962" phases=3 bus1="NODE#445012495.1.2.3" bus2="NODE#445012496.1.2.3" linecode="46_3" length=0.02700 units=km
New "Line.SMT_247808472" phases=3 bus1="NODE#445009607.1.2.3" bus2="NODE#445010042.1.2.3" linecode="46_3" length=0.04346 units=km
New "Line.SMT_243625077" phases=1 bus1="NODE#424245147.1" bus2="NODE#424246284.1" linecode="1248_1" length=0.02163 units=km
New "Line.SMT_243625240" phases=1 bus1="NODE#424311633.1" bus2="NODE#424311634.1" linecode="1248_1" length=0.03245 units=km
New "Line.SMT_247391636" phases=1 bus1="NODE#442899901.2" bus2="NODE#442898397.2" linecode="1220_1" length=0.03625 units=km
New "Line.SMT_245489208" phases=3 bus1="NODE#433472883.1.2.3" bus2="NODE#433472884.1.2.3" linecode="35_3" length=0.02907 units=km
New "Line.SMT_247808935" phases=1 bus1="NODE#445012356.3" bus2="NODE#433473272.3" linecode="1193_1" length=0.01265 units=km
New "Line.SMT_243625241" phases=1 bus1="NODE#424311638.1" bus2="NODE#424311633.1" linecode="1248_1" length=0.02884 units=km
New "Line.SMT_247807284" phases=3 bus1="NODE#444896747.1.2.3" bus2="NODE#444896748.1.2.3" linecode="48_3" length=0.03027 units=km
New "Line.SMT_245488807" phases=3 bus1="NODE#433470878.1.2.3" bus2="NODE#433470879.1.2.3" linecode="35_3" length=0.02102 units=km
New "Line.SMT_247809025" phases=3 bus1="NODE#445012810.1.2.3" bus2="NODE#445012811.1.2.3" linecode="46_3" length=0.02000 units=km
New "Line.SMT_247807269" phases=3 bus1="NODE#444896672.1.2.3" bus2="NODE#444896472.1.2.3" linecode="48_3" length=0.02159 units=km
New "Line.SMT_245489626" phases=3 bus1="NODE#433474943.1.2.3" bus2="NODE#424313018.1.2.3" linecode="35_3" length=0.02530 units=km
New "Line.SMT_247808892" phases=1 bus1="NODE#445011077.2" bus2="NODE#445012146.2" linecode="1193_1" length=0.04522 units=km
New "Line.SMT_2384681526" phases=3 bus1="NODE#2566408161.1.2.3" bus2="NODE#2566408099.1.2.3" linecode="48_3" length=0.02500 units=km
New "Line.SMT_247127413" phases=3 bus1="NODE#442497686.1.2.3" bus2="NODE#442497687.1.2.3" linecode="77_3" length=0.02955 units=km
New "Line.SMT_342093735" phases=3 bus1="NODE#445012050.1.2.3" bus2="NODE#535924200.1.2.3" linecode="46_3" length=0.00049 units=km
New "Line.SMT_348421315" phases=3 bus1="NODE#442497632.1.2.3" bus2="NODE#544639042.1.2.3" linecode="46_3" length=0.00047 units=km
New "Line.SMT_247808306" phases=3 bus1="NODE#445009211.1.2.3" bus2="NODE#445009212.1.2.3" linecode="46_3" length=0.03036 units=km
New "Line.SMT_243624982" phases=3 bus1="NODE#424245711.1.2.3" bus2="NODE#424245910.1.2.3" linecode="48_3" length=0.02256 units=km
New "Line.SMT_247808698" phases=3 bus1="NODE#445010807.1.2.3" bus2="NODE#445011086.1.2.3" linecode="48_3" length=0.02702 units=km
New "Line.SMT_247127407" phases=3 bus1="NODE#442497652.1.2.3" bus2="NODE#442497657.1.2.3" linecode="77_3" length=0.03770 units=km
New "Line.SMT_247808893" phases=1 bus1="NODE#445012146.2" bus2="NODE#445011970.2" linecode="1193_1" length=0.03941 units=km
New "Line.SMT_247391683" phases=3 bus1="NODE#442900136.1.2.3" bus2="NODE#442900137.1.2.3" linecode="40_3" length=0.06083 units=km
New "Line.SMT_1997581692" phases=3 bus1="NODE#2316029041.1.2.3" bus2="NODE#2316029020.1.2.3" linecode="48_3" length=0.01814 units=km
New "Line.SMT_243625184" phases=3 bus1="NODE#424246943.1.2.3" bus2="NODE#424246944.1.2.3" linecode="48_3" length=0.03500 units=km
New "Line.SMT_247808460" phases=1 bus1="NODE#445009277.2" bus2="NODE#445009696.2" linecode="1193_1" length=0.03302 units=km
New "Line.SMT_247808971" phases=3 bus1="NODE#445012491.1.2.3" bus2="NODE#445012541.1.2.3" linecode="46_3" length=0.02081 units=km
New "Line.SMT_245699213" phases=3 bus1="NODE#434600288.1.2.3" bus2="NODE#434600293.1.2.3" linecode="773_3" length=0.02707 units=km
New "Line.SMT_247808901" phases=1 bus1="NODE#433473112.2" bus2="NODE#445012030.2" linecode="1193_1" length=0.03667 units=km
New "Line.SMT_243625178" phases=3 bus1="NODE#424246759.1.2.3" bus2="NODE#424246698.1.2.3" linecode="293_3" length=0.03423 units=km
New "Line.SMT_247808403" phases=1 bus1="NODE#445009696.2" bus2="NODE#445009697.2" linecode="1193_1" length=0.02789 units=km
New "Line.SMT_343239569" phases=3 bus1="NODE#434807531.1.2.3" bus2="NODE#537199947.1.2.3" linecode="46_3" length=0.00050 units=km
New "Line.SMT_243625378" phases=3 bus1="NODE#424246874.1.2.3" bus2="NODE#424246853.1.2.3" linecode="293_3" length=0.03140 units=km
New "Line.SMT_245489075" phases=3 bus1="NODE#2015114209.1.2.3" bus2="NODE#433472219.1.2.3" linecode="38_3" length=0.06200 units=km
New "Line.SMT_243624849" phases=3 bus1="NODE#424245237.1.2.3" bus2="NODE#424245257.1.2.3" linecode="78_3" length=0.03501 units=km
New "Line.SMT_243624870" phases=3 bus1="NODE#537937349.1.2.3" bus2="NODE#424245366.1.2.3" linecode="48_3" length=0.00051 units=km
New "Line.SMT_247808330" phases=1 bus1="NODE#445009331.2" bus2="NODE#445009236.2" linecode="1193_1" length=0.01005 units=km
New "Line.SMT_243624697" phases=3 bus1="NODE#424244263.1.2.3" bus2="NODE#424244332.1.2.3" linecode="48_3" length=0.02864 units=km
New "Line.SMT_243624827" phases=1 bus1="NODE#424245146.1" bus2="NODE#424245147.1" linecode="1248_1" length=0.03413 units=km
New "Line.SMT_247808964" phases=1 bus1="NODE#445012261.3" bus2="NODE#445012290.3" linecode="1193_1" length=0.01530 units=km
New "Line.SMT_1555106521" phases=3 bus1="NODE#1856060615.1.2.3" bus2="NODE#1856060626.1.2.3" linecode="38_3" length=0.03000 units=km
New "Line.SMT_245700237" phases=3 bus1="NODE#434807181.1.2.3" bus2="NODE#434806995.1.2.3" linecode="40_3" length=0.03406 units=km
New "Line.SMT_243624665" phases=3 bus1="NODE#424244332.1.2.3" bus2="NODE#424244333.1.2.3" linecode="48_3" length=0.03008 units=km
New "Line.SMT_245699239" phases=3 bus1="NODE#434600422.1.2.3" bus2="NODE#434600423.1.2.3" linecode="77_3" length=0.03401 units=km
New "Line.SMT_245699216" phases=3 bus1="NODE#434600307.1.2.3" bus2="NODE#434600302.1.2.3" linecode="773_3" length=0.03970 units=km
New "Line.SMT_247808860" phases=1 bus1="NODE#445011971.2" bus2="NODE#445011546.2" linecode="1193_1" length=0.05022 units=km
New "Line.SMT_243625220" phases=3 bus1="NODE#424247123.1.2.3" bus2="NODE#424247124.1.2.3" linecode="48_3" length=0.03538 units=km
New "Line.SMT_247808510" phases=3 bus1="NODE#445010231.1.2.3" bus2="NODE#445010232.1.2.3" linecode="46_3" length=0.01676 units=km
New "Line.SMT_245488822" phases=1 bus1="NODE#433470953.2" bus2="NODE#433470954.2" linecode="1192_1" length=0.02377 units=km
New "Line.SMT_246684287" phases=3 bus1="NODE#439762200.1.2.3" bus2="NODE#439761895.1.2.3" linecode="43_3" length=0.03400 units=km
New "Line.SMT_243625023" phases=3 bus1="NODE#424245901.1.2.3" bus2="NODE#424246135.1.2.3" linecode="48_3" length=0.03624 units=km
New "Line.SMT_247808609" phases=3 bus1="NODE#445010092.1.2.3" bus2="NODE#445010727.1.2.3" linecode="46_3" length=0.03625 units=km
New "Line.SMT_348728681" phases=3 bus1="NODE#424311643.1.2.3" bus2="NODE#545458739.1.2.3" linecode="293_3" length=0.00048 units=km
New "Line.SMT_245488795" phases=1 bus1="NODE#433298549.2" bus2="NODE#433298773.2" linecode="1192_1" length=0.03667 units=km
New "Line.SMT_247127485" phases=3 bus1="NODE#442497647.1.2.3" bus2="NODE#442498047.1.2.3" linecode="77_3" length=0.03178 units=km
New "Line.SMT_1660335376" phases=1 bus1="NODE#1981522686.3" bus2="NODE#1981522711.3" linecode="1222_1" length=0.04200 units=km
New "Line.SMT_243625040" phases=3 bus1="NODE#424245966.1.2.3" bus2="NODE#424245995.1.2.3" linecode="48_3" length=0.02802 units=km
New "Line.SMT_243624823" phases=1 bus1="NODE#424245126.1" bus2="NODE#424245127.1" linecode="1248_1" length=0.03178 units=km
New "Line.SMT_247808569" phases=3 bus1="NODE#434807045.1.2.3" bus2="NODE#444955883.1.2.3" linecode="46_3" length=0.01000 units=km
New "Line.SMT_247808737" phases=3 bus1="NODE#445011352.1.2.3" bus2="NODE#445011367.1.2.3" linecode="46_3" length=0.01404 units=km
New "Line.SMT_247808276" phases=3 bus1="NODE#445009061.1.2.3" bus2="NODE#424246344.1.2.3" linecode="48_3" length=0.02816 units=km
New "Line.SMT_243624912" phases=3 bus1="NODE#424245571.1.2.3" bus2="NODE#424244822.1.2.3" linecode="48_3" length=0.02452 units=km
New "Line.SMT_245489115" phases=1 bus1="NODE#433472199.3" bus2="NODE#433472419.3" linecode="1192_1" length=0.03046 units=km
New "Line.SMT_243625161" phases=3 bus1="NODE#424246828.1.2.3" bus2="NODE#424246829.1.2.3" linecode="48_3" length=0.03640 units=km
New "Line.SMT_343728646" phases=3 bus1="NODE#424312122.1.2.3" bus2="NODE#537938365.1.2.3" linecode="147_3" length=0.00046 units=km
New "Line.SMT_351886314" phases=3 bus1="100#351837711.1.2.3" bus2="NODE#434602759.1.2.3" linecode="320_3" length=0.03059 units=km
New "Line.SMT_247809039" phases=3 bus1="NODE#445012880.1.2.3" bus2="NODE#445012875.1.2.3" linecode="40_3" length=0.04177 units=km
New "Line.SMT_247808788" phases=1 bus1="NODE#445011621.1" bus2="NODE#445011491.1" linecode="1193_1" length=0.01924 units=km
New "Line.SMT_245700268" phases=1 bus1="NODE#434807405.2" bus2="NODE#434807406.2" linecode="1220_1" length=0.03860 units=km
New "Line.SMT_247808961" phases=3 bus1="NODE#445012486.1.2.3" bus2="NODE#445012491.1.2.3" linecode="46_3" length=0.02823 units=km
New "Line.SMT_247808564" phases=3 bus1="NODE#445010497.1.2.3" bus2="NODE#445010502.1.2.3" linecode="46_3" length=0.03276 units=km
New "Line.SMT_245488994" phases=3 bus1="NODE#433471813.1.2.3" bus2="NODE#433297388.1.2.3" linecode="35_3" length=0.03523 units=km
New "Line.SMT_243624609" phases=3 bus1="NODE#424243362.1.2.3" bus2="NODE#424243436.1.2.3" linecode="48_3" length=0.00447 units=km
New "Line.SMT_2384436788" phases=3 bus1="NODE#2566408099.1.2.3" bus2="NODE#2566408162.1.2.3" linecode="48_3" length=0.01500 units=km
New "Line.SMT_243625058" phases=3 bus1="NODE#424246060.1.2.3" bus2="NODE#424245111.1.2.3" linecode="48_3" length=0.03036 units=km
New "Line.SMT_342316094" phases=3 bus1="NODE#424244058.1.2.3" bus2="NODE#536283838.1.2.3" linecode="48_3" length=0.00051 units=km
New "Line.SMT_246684226" phases=3 bus1="NODE#439761895.1.2.3" bus2="NODE#439761896.1.2.3" linecode="43_3" length=0.02818 units=km
New "Line.SMT_342316572" phases=1 bus1="NODE#433473503.3" bus2="NODE#536284804.3" linecode="1193_1" length=0.00052 units=km
New "Line.SMT_247808649" phases=1 bus1="NODE#433472319.2" bus2="NODE#445010927.2" linecode="1220_1" length=0.04022 units=km
New "Line.SMT_247809174" phases=3 bus1="NODE#445056499.1.2.3" bus2="NODE#445056379.1.2.3" linecode="46_3" length=0.02700 units=km
New "Line.SMT_247809028" phases=3 bus1="NODE#445012541.1.2.3" bus2="NODE#434600282.1.2.3" linecode="46_3" length=0.01170 units=km
New "Line.SMT_247127515" phases=3 bus1="NODE#442498047.1.2.3" bus2="NODE#442498197.1.2.3" linecode="77_3" length=0.03362 units=km
New "Line.SMT_245699215" phases=3 bus1="NODE#434600302.1.2.3" bus2="NODE#434600303.1.2.3" linecode="773_3" length=0.03265 units=km
New "Line.SMT_343237416" phases=1 bus1="NODE#433471903.2" bus2="NODE#537095649.2" linecode="1193_1" length=0.00071 units=km
New "Line.SMT_247808025" phases=1 bus1="NODE#444956278.3" bus2="NODE#433470798.3" linecode="1193_1" length=0.01965 units=km
New "Line.SMT_247807872" phases=3 bus1="NODE#444955513.1.2.3" bus2="NODE#444955514.1.2.3" linecode="46_3" length=0.04118 units=km
New "Line.SMT_243625047" phases=1 bus1="NODE#424246254.1" bus2="NODE#424246255.1" linecode="1191_1" length=0.03000 units=km
New "Line.SMT_247808619" phases=3 bus1="NODE#445010557.1.2.3" bus2="NODE#445010226.1.2.3" linecode="48_3" length=0.03008 units=km
New "Line.SMT_247808759" phases=3 bus1="NODE#445011476.1.2.3" bus2="NODE#445011477.1.2.3" linecode="46_3" length=0.02818 units=km
New "Line.SMT_247127419" phases=3 bus1="NODE#442497716.1.2.3" bus2="NODE#442497706.1.2.3" linecode="77_3" length=0.03087 units=km
New "Line.SMT_243625252" phases=3 bus1="NODE#424247124.1.2.3" bus2="NODE#424311694.1.2.3" linecode="48_3" length=0.05061 units=km
New "Line.SMT_347582194" phases=1 bus1="NODE#433470798.3" bus2="NODE#542538358.3" linecode="1192_1" length=0.00051 units=km
New "Line.SMT_247808478" phases=1 bus1="NODE#445010071.2" bus2="NODE#445010072.2" linecode="1193_1" length=0.13936 units=km
New "Line.SMT_243624825" phases=1 bus1="NODE#424245132.1" bus2="NODE#424245126.1" linecode="1248_1" length=0.02907 units=km
New "Line.SMT_247808921" phases=1 bus1="NODE#445012290.3" bus2="NODE#445012285.3" linecode="1193_1" length=0.01581 units=km
New "Line.SMT_247127417" phases=3 bus1="NODE#442497706.1.2.3" bus2="NODE#434600422.1.2.3" linecode="77_3" length=0.03900 units=km
New "Line.SMT_247391640" phases=1 bus1="NODE#442898398.2" bus2="NODE#442899906.2" linecode="1220_1" length=0.03444 units=km
New "Line.SMT_243624977" phases=3 bus1="NODE#424245900.1.2.3" bus2="NODE#424245901.1.2.3" linecode="48_3" length=0.02561 units=km
New "Line.SMT_245489513" phases=3 bus1="NODE#433474412.1.2.3" bus2="NODE#433474413.1.2.3" linecode="35_3" length=0.02193 units=km
New "Line.SMT_243624840" phases=3 bus1="NODE#424245052.1.2.3" bus2="NODE#424245212.1.2.3" linecode="78_3" length=0.03506 units=km
New "Line.SMT_247808667" phases=3 bus1="NODE#442497917.1.2.3" bus2="NODE#1987035704.1.2.3" linecode="38_3" length=0.03400 units=km
New "Line.SMT_247127506" phases=3 bus1="NODE#442498122.1.2.3" bus2="NODE#442498126.1.2.3" linecode="77_3" length=0.03493 units=km
New "Line.SMT_247807295" phases=3 bus1="NODE#444896802.1.2.3" bus2="NODE#444896672.1.2.3" linecode="48_3" length=0.03511 units=km
New "Line.SMT_247808671" phases=3 bus1="NODE#2015114208.1.2.3" bus2="NODE#445011037.1.2.3" linecode="46_3" length=0.02800 units=km
New "Line.SMT_247808798" phases=1 bus1="NODE#445010197.2" bus2="NODE#445010071.2" linecode="1193_1" length=0.16137 units=km
New "Line.SMT_247808825" phases=3 bus1="NODE#445011810.1.2.3" bus2="NODE#445011811.1.2.3" linecode="46_3" length=0.03397 units=km
New "Line.SMT_247808116" phases=3 bus1="NODE#1214420841.1.2.3" bus2="NODE#1214420867.1.2.3" linecode="46_3" length=0.02800 units=km
New "Line.SMT_247808385" phases=3 bus1="NODE#445009606.1.2.3" bus2="NODE#445009607.1.2.3" linecode="46_3" length=0.00825 units=km
New "Line.SMT_247807369" phases=3 bus1="NODE#537544008.1.2.3" bus2="NODE#424244063.1.2.3" linecode="48_3" length=0.00050 units=km
New "Line.SMT_243625518" phases=3 bus1="NODE#424313023.1.2.3" bus2="NODE#424312292.1.2.3" linecode="293_3" length=0.03483 units=km
New "Line.SMT_342933954" phases=1 bus1="NODE#445011660.2" bus2="NODE#536852251.2" linecode="1193_1" length=0.00049 units=km
New "Line.SMT_245488512" phases=3 bus1="NODE#433297643.1.2.3" bus2="NODE#433297644.1.2.3" linecode="59_3" length=0.06466 units=km
New "Line.SMT_869419070" phases=3 bus1="NODE#445012811.1.2.3" bus2="NODE#1136793623.1.2.3" linecode="38_3" length=0.03500 units=km
New "Line.SMT_247127383" phases=3 bus1="NODE#442497536.1.2.3" bus2="NODE#442497537.1.2.3" linecode="77_3" length=0.03162 units=km
New "Line.SMT_247808944" phases=3 bus1="NODE#445012056.1.2.3" bus2="NODE#445011915.1.2.3" linecode="46_3" length=0.02147 units=km
New "Line.SMT_243625344" phases=3 bus1="NODE#424312157.1.2.3" bus2="NODE#424312158.1.2.3" linecode="48_3" length=0.04188 units=km
New "Line.SMT_245489293" phases=3 bus1="NODE#433473312.1.2.3" bus2="NODE#433473177.1.2.3" linecode="35_3" length=0.04342 units=km
New "Line.SMT_247808734" phases=3 bus1="NODE#442899901.1.2.3" bus2="NODE#445011352.1.2.3" linecode="46_3" length=0.02052 units=km
New "Line.SMT_243625151" phases=3 bus1="NODE#424245366.1.2.3" bus2="NODE#424245415.1.2.3" linecode="48_3" length=0.01772 units=km
New "Line.SMT_245489285" phases=1 bus1="NODE#433473272.3" bus2="NODE#433473273.3" linecode="1192_1" length=0.02816 units=km
New "Line.SMT_243624781" phases=3 bus1="NODE#424244623.1.2.3" bus2="NODE#424244862.1.2.3" linecode="48_3" length=0.02729 units=km
New "Line.SMT_243625227" phases=3 bus1="NODE#424247149.1.2.3" bus2="NODE#424247159.1.2.3" linecode="48_3" length=0.03418 units=km
New "Line.SMT_245488926" phases=3 bus1="NODE#433471319.1.2.3" bus2="NODE#433471474.1.2.3" linecode="35_3" length=0.03640 units=km
New "Line.SMT_247808685" phases=1 bus1="NODE#445011097.2" bus2="NODE#445011107.2" linecode="1193_1" length=0.02921 units=km
New "Line.SMT_243624740" phases=3 bus1="NODE#424244707.1.2.3" bus2="NODE#424244708.1.2.3" linecode="48_3" length=0.02816 units=km
New "Line.SMT_247808566" phases=3 bus1="NODE#445010511.1.2.3" bus2="NODE#445010512.1.2.3" linecode="46_3" length=0.03672 units=km
New "Line.SMT_247808600" phases=3 bus1="NODE#445010582.1.2.3" bus2="NODE#445010231.1.2.3" linecode="46_3" length=0.01600 units=km
New "Line.SMT_247808390" phases=3 bus1="NODE#445009631.1.2.3" bus2="NODE#445009632.1.2.3" linecode="46_3" length=0.03138 units=km
New "Line.SMT_247808844" phases=3 bus1="NODE#445010392.1.2.3" bus2="NODE#445011810.1.2.3" linecode="46_3" length=0.03253 units=km
New "Line.SMT_341832599" phases=3 bus1="NODE#424246773.1.2.3" bus2="NODE#535162972.1.2.3" linecode="293_3" length=0.00054 units=km
New "Line.SMT_247808728" phases=3 bus1="NODE#445010977.1.2.3" bus2="NODE#445011322.1.2.3" linecode="46_3" length=0.03863 units=km
New "Line.SMT_247808516" phases=1 bus1="NODE#445010257.2" bus2="NODE#445010262.2" linecode="1193_1" length=0.02702 units=km
New "Line.SMT_348286354" phases=1 bus1="NODE#445009691.2" bus2="NODE#544189116.2" linecode="1193_1" length=0.00049 units=km
New "Line.SMT_243624871" phases=3 bus1="NODE#424245062.1.2.3" bus2="NODE#424245371.1.2.3" linecode="78_3" length=0.02941 units=km
New "Line.SMT_247809000" phases=3 bus1="NODE#445012685.1.2.3" bus2="NODE#445012535.1.2.3" linecode="46_3" length=0.02832 units=km
New "Line.SMT_247808089" phases=3 bus1="NODE#444955504.1.2.3" bus2="NODE#444956599.1.2.3" linecode="46_3" length=0.02332 units=km
New "Line.SMT_243624610" phases=3 bus1="NODE#424243362.1.2.3" bus2="NODE#424244058.1.2.3" linecode="48_3" length=0.00539 units=km
New "Line.SMT_246684233" phases=3 bus1="NODE#439761731.1.2.3" bus2="NODE#439761860.1.2.3" linecode="43_3" length=0.02955 units=km
New "Line.SMT_243625258" phases=3 bus1="NODE#424311723.1.2.3" bus2="NODE#424311643.1.2.3" linecode="293_3" length=0.03202 units=km
New "Line.SMT_247808345" phases=3 bus1="NODE#445009007.1.2.3" bus2="NODE#445009407.1.2.3" linecode="48_3" length=0.02717 units=km
New "Line.SMT_247808373" phases=3 bus1="NODE#445009212.1.2.3" bus2="NODE#445009547.1.2.3" linecode="46_3" length=0.02915 units=km
New "Line.SMT_247809062" phases=3 bus1="NODE#433642874.1.2.3" bus2="NODE#445055936.1.2.3" linecode="46_3" length=0.02500 units=km
New "Line.SMT_246684264" phases=3 bus1="NODE#439762066.1.2.3" bus2="NODE#439762086.1.2.3" linecode="43_3" length=0.03132 units=km
New "Line.SMT_247807087" phases=3 bus1="NODE#444895758.1.2.3" bus2="NODE#444895759.1.2.3" linecode="48_3" length=0.03511 units=km
New "Line.SMT_245489563" phases=3 bus1="NODE#433474657.1.2.3" bus2="NODE#433474663.1.2.3" linecode="35_3" length=0.01700 units=km
New "Line.SMT_247808868" phases=3 bus1="NODE#445011002.1.2.3" bus2="NODE#445012026.1.2.3" linecode="48_3" length=0.03041 units=km
New "Line.SMT_243625063" phases=1 bus1="NODE#424246334.1" bus2="NODE#424246329.1" linecode="1248_1" length=0.03041 units=km
New "Line.SMT_247808986" phases=3 bus1="NODE#445012615.1.2.3" bus2="NODE#445012590.1.2.3" linecode="40_3" length=0.03970 units=km
New "Line.SMT_247808171" phases=3 bus1="NODE#444957008.1.2.3" bus2="NODE#444956553.1.2.3" linecode="46_3" length=0.03270 units=km
New "Line.SMT_1555106647" phases=3 bus1="NODE#1856060626.1.2.3" bus2="NODE#1856060793.1.2.3" linecode="38_3" length=0.00378 units=km
New "Line.SMT_341836477" phases=3 bus1="NODE#424245425.1.2.3" bus2="NODE#535524184.1.2.3" linecode="48_3" length=0.00050 units=km
New "Line.SMT_1660335242" phases=1 bus1="NODE#1981522215.3" bus2="NODE#1981522202.3" linecode="1192_1" length=0.02357 units=km
New "Line.SMT_247808677" phases=3 bus1="NODE#445010717.1.2.3" bus2="NODE#445011021.1.2.3" linecode="46_3" length=0.02657 units=km
New "Line.SMT_348547014" phases=3 bus1="NODE#424313022.1.2.3" bus2="NODE#545018739.1.2.3" linecode="293_3" length=0.00051 units=km
New "Line.SMT_348421262" phases=3 bus1="NODE#433298383.1.2.3" bus2="NODE#544638937.1.2.3" linecode="46_3" length=0.00052 units=km
New "Line.SMT_247808491" phases=3 bus1="NODE#445009712.1.2.3" bus2="NODE#445009736.1.2.3" linecode="48_3" length=0.02012 units=km
New "Line.SMT_2181661344" phases=3 bus1="NODE#2488240221.1.2.3" bus2="NODE#2488240259.1.2.3" linecode="38_3" length=0.03700 units=km
New "Line.SMT_348546914" phases=3 bus1="NODE#444955668.1.2.3" bus2="NODE#545018511.1.2.3" linecode="46_3" length=0.00053 units=km
New "Line.SMT_247808689" phases=3 bus1="NODE#2486161600.1.2.3" bus2="NODE#2486161617.1.2.3" linecode="46_3" length=0.01470 units=km
New "Line.SMT_245699718" phases=3 bus1="100#351837732.1.2.3" bus2="NODE#434602715.1.2.3" linecode="320_3" length=0.00030 units=km
New "Line.SMT_247127532" phases=3 bus1="100#351815479.1.2.3" bus2="NODE#424245287.1.2.3" linecode="78_3" length=0.03058 units=km
New "Line.SMT_341430286" phases=3 bus1="NODE#424244008.1.2.3" bus2="NODE#534876699.1.2.3" linecode="70_3" length=0.00050 units=km
New "Line.SMT_313439305" phases=3 bus1="NODE#499845494.1.2.3" bus2="NODE#499845495.1.2.3" linecode="335_3" length=0.00316 units=km
New "Line.SMT_247807810" phases=3 bus1="NODE#444896913.1.2.3" bus2="NODE#444896802.1.2.3" linecode="48_3" length=0.03418 units=km
New "Line.SMT_243624563" phases=3 bus1="NODE#537635221.1.2.3" bus2="NODE#424243625.1.2.3" linecode="48_3" length=0.00055 units=km
New "Line.SMT_247808622" phases=3 bus1="NODE#445010232.1.2.3" bus2="NODE#445010792.1.2.3" linecode="46_3" length=0.03700 units=km
New "Line.SMT_245699244" phases=3 bus1="NODE#434600447.1.2.3" bus2="NODE#434600417.1.2.3" linecode="42_3" length=0.56779 units=km
New "Line.SMT_247127479" phases=3 bus1="NODE#442498016.1.2.3" bus2="NODE#442497536.1.2.3" linecode="77_3" length=0.03176 units=km
New "Line.SMT_247809024" phases=3 bus1="NODE#445012481.1.2.3" bus2="NODE#445012806.1.2.3" linecode="46_3" length=0.03606 units=km
New "Line.SMT_243624789" phases=3 bus1="NODE#424244738.1.2.3" bus2="NODE#424244927.1.2.3" linecode="48_3" length=0.02864 units=km
New "Line.SMT_243625266" phases=3 bus1="NODE#424311763.1.2.3" bus2="NODE#424311753.1.2.3" linecode="48_3" length=0.03270 units=km
New "Line.SMT_247809032" phases=3 bus1="NODE#424311784.1.2.3" bus2="NODE#445012685.1.2.3" linecode="46_3" length=0.02081 units=km
New "Line.SMT_243625127" phases=3 bus1="NODE#424245212.1.2.3" bus2="NODE#424245056.1.2.3" linecode="78_3" length=0.04342 units=km
New "Line.SMT_247808080" phases=3 bus1="NODE#444956553.1.2.3" bus2="NODE#444955893.1.2.3" linecode="46_3" length=0.02354 units=km
New "Line.SMT_247127435" phases=3 bus1="NODE#442497796.1.2.3" bus2="NODE#434600367.1.2.3" linecode="77_3" length=0.02983 units=km
New "Line.SMT_247808044" phases=3 bus1="NODE#444956373.1.2.3" bus2="NODE#434600447.1.2.3" linecode="46_3" length=0.11541 units=km
New "Line.SMT_247808109" phases=3 bus1="NODE#444956499.1.2.3" bus2="NODE#444956699.1.2.3" linecode="46_3" length=0.02059 units=km
New "Line.SMT_247808739" phases=3 bus1="NODE#445010972.1.2.3" bus2="NODE#445010806.1.2.3" linecode="48_3" length=0.02193 units=km
New "Line.SMT_245488903" phases=3 bus1="NODE#433471358.1.2.3" bus2="NODE#433471359.1.2.3" linecode="35_3" length=0.03624 units=km
New "Line.SMT_247809050" phases=3 bus1="NODE#445012601.1.2.3" bus2="NODE#445012936.1.2.3" linecode="40_3" length=0.03863 units=km
New "Line.SMT_245699298" phases=3 bus1="NODE#434600717.1.2.3" bus2="NODE#434600712.1.2.3" linecode="77_3" length=0.08500 units=km
New "Line.SMT_245700229" phases=3 bus1="NODE#434807196.1.2.3" bus2="NODE#434807211.1.2.3" linecode="40_3" length=0.03625 units=km
New "Line.SMT_245489232" phases=1 bus1="NODE#433472214.2" bus2="NODE#433472238.2" linecode="1192_1" length=0.04079 units=km
New "Line.SMT_245489116" phases=3 bus1="NODE#433472423.1.2.3" bus2="NODE#433298738.1.2.3" linecode="35_3" length=0.03280 units=km
New "Line.SMT_245488932" phases=3 bus1="NODE#424246419.1.2.3" bus2="NODE#433471373.1.2.3" linecode="35_3" length=0.03384 units=km
New "Line.SMT_245489218" phases=3 bus1="NODE#433472937.1.2.3" bus2="NODE#433472938.1.2.3" linecode="35_3" length=0.03523 units=km
New "Line.SMT_247808658" phases=3 bus1="NODE#445010957.1.2.3" bus2="NODE#445010972.1.2.3" linecode="48_3" length=0.03401 units=km
New "Line.SMT_245489307" phases=3 bus1="NODE#433472938.1.2.3" bus2="NODE#433472883.1.2.3" linecode="35_3" length=0.02907 units=km
New "Line.SMT_247808668" phases=3 bus1="NODE#445011021.1.2.3" bus2="NODE#2486161616.1.2.3" linecode="46_3" length=0.03900 units=km
New "Line.SMT_243624864" phases=3 bus1="NODE#424245316.1.2.3" bus2="NODE#424245336.1.2.3" linecode="48_3" length=0.00728 units=km
New "Line.SMT_247807991" phases=3 bus1="NODE#433298918.1.2.3" bus2="NODE#444956103.1.2.3" linecode="46_3" length=0.00781 units=km
New "Line.SMT_247391641" phases=1 bus1="NODE#442899907.2" bus2="NODE#442899927.2" linecode="1220_1" length=0.03534 units=km
New "Line.SMT_246684313" phases=3 bus1="NODE#424244448.1.2.3" bus2="NODE#439761626.1.2.3" linecode="43_3" length=0.02012 units=km
New "Line.SMT_343638019" phases=3 bus1="NODE#424245900.1.2.3" bus2="NODE#537803296.1.2.3" linecode="40_3" length=0.00050 units=km
New "Line.SMT_247808308" phases=3 bus1="NODE#445009221.1.2.3" bus2="NODE#445009211.1.2.3" linecode="46_3" length=0.03158 units=km