New "Line.SBT_320038541" phases=3 bus1="NODE#511970030.1.2.4" bus2="NODE#460625043.1.2.4" linecode="50_3" length=0.00539 units=km
New "Line.SBT_320038544" phases=3 bus1="NODE#511972384.1.2.4" bus2="NODE#499845750.1.2.4" linecode="50_3" length=0.02563 units=km
New "Line.SBT_320038540" phases=3 bus1="NODE#511970020.1.2.4" bus2="NODE#511970029.1.2.4" linecode="50_3" length=0.01204 units=km
New "Line.SBT_1660335223" phases=3 bus1="NODE#1981522454.1.2.4" bus2="NODE#1981522144.1.2.4" linecode="68_3" length=0.03000 units=km
New "Line.SBT_271909380" phases=3 bus1="NODE#420661706.1.2.4" bus2="NODE#461667376.1.2.4" linecode="32_3" length=0.03195 units=km
New "Line.SBT_273625408" phases=3 bus1="NODE#420661610.1.2.4" bus2="NODE#461571052.1.2.4" linecode="139_3" length=0.03225 units=km
New "Line.SBT_273358818" phases=4 bus1="NODE#460624783.1.2.3.4" bus2="NODE#456206159.1.2.3.4" linecode="139_4" length=0.03264 units=km
New "Line.SBT_273623665" phases=4 bus1="NODE#465280307.1.2.3.4" bus2="NODE#465485381.1.2.3.4" linecode="315_4" length=0.02920 units=km
New "Line.SBT_273924758" phases=4 bus1="NODE#420661295.1.2.3.4" bus2="NODE#463567805.1.2.3.4" linecode="32_4" length=0.03104 units=km
New "Line.SBT_320038136" phases=3 bus1="NODE#511976771.2.3.4" bus2="NODE#511976772.2.3.4" linecode="50_3" length=0.00943 units=km
New "Line.SBT_274181727" phases=4 bus1="NODE#466364304.1.2.3.4" bus2="NODE#464188378.1.2.3.4" linecode="1_4" length=0.02863 units=km
New "Line.SBT_271911298" phases=3 bus1="NODE#738615250.1.2.4" bus2="NODE#461900256.1.2.4" linecode="285_3" length=0.03359 units=km
New "Line.SBT_273357226" phases=4 bus1="NODE#462233648.1.2.3.4" bus2="NODE#464981920.1.2.3.4" linecode="1_4" length=0.02815 units=km
New "Line.SBT_272349383" phases=4 bus1="NODE#461573445.1.2.3.4" bus2="NODE#461140130.1.2.3.4" linecode="1_4" length=0.02901 units=km
New "Line.SBT_271667025" phases=4 bus1="NODE#461447506.1.2.3.4" bus2="NODE#461447507.1.2.3.4" linecode="274_4" length=0.02954 units=km
New "Line.SBT_273057385" phases=3 bus1="NODE#464496096.1.2.4" bus2="NODE#420685015.1.2.4" linecode="139_3" length=0.03176 units=km
New "Line.SBT_272832471" phases=4 bus1="NODE#463775156.1.2.3.4" bus2="NODE#463775157.1.2.3.4" linecode="13_4" length=0.02571 units=km
New "Line.SBT_272351197" phases=4 bus1="NODE#462889237.1.2.3.4" bus2="NODE#420661148.1.2.3.4" linecode="34_4" length=0.02996 units=km
New "Line.SBT_271667649" phases=4 bus1="NODE#456571084.1.2.3.4" bus2="NODE#1072490942.1.2.3.4" linecode="281_4" length=0.03000 units=km
New "Line.SBT_273924792" phases=4 bus1="NODE#463776764.1.2.3.4" bus2="NODE#463570515.1.2.3.4" linecode="248_4" length=0.03176 units=km
New "Line.SBT_272348605" phases=4 bus1="NODE#2486161595.1.2.3.4" bus2="NODE#2486161606.1.2.3.4" linecode="13_4" length=0.03499 units=km
New "Line.SBT_271667770" phases=4 bus1="NODE#461263027.1.2.3.4" bus2="NODE#460896507.1.2.3.4" linecode="315_4" length=0.03894 units=km
New "Line.SBT_273057489" phases=4 bus1="NODE#461789521.1.2.3.4" bus2="NODE#451006801.1.2.3.4" linecode="316_4" length=0.02220 units=km
New "Line.SBT_273622492" phases=4 bus1="NODE#463332142.1.2.3.4" bus2="NODE#451006697.1.2.3.4" linecode="821_4" length=0.02385 units=km
New "Line.SBT_1935979961" phases=4 bus1="NODE#420219285.1.2.3.4" bus2="NODE#2252945880.1.2.3.4" linecode="52_4" length=0.04200 units=km
New "Line.SBT_272347317" phases=4 bus1="NODE#420711540.1.2.3.4" bus2="NODE#462684809.1.2.3.4" linecode="1_4" length=0.03423 units=km
New "Line.SBT_271667500" phases=4 bus1="NODE#461449883.1.2.3.4" bus2="NODE#461449884.1.2.3.4" linecode="32_4" length=0.02683 units=km
New "Line.SBT_273622357" phases=4 bus1="NODE#462103103.1.2.3.4" bus2="NODE#462232002.1.2.3.4" linecode="101_4" length=0.03361 units=km
New "Line.SBT_271911993" phases=4 bus1="NODE#461667977.1.2.3.4" bus2="NODE#461993907.1.2.3.4" linecode="32_4" length=0.03716 units=km
New "Line.SBT_274184211" phases=4 bus1="NODE#464866159.1.2.3.4" bus2="NODE#463678431.1.2.3.4" linecode="517_4" length=0.03577 units=km
New "Line.SBT_271912593" phases=3 bus1="NODE#462099962.1.2.4" bus2="NODE#462098832.1.2.4" linecode="821_3" length=0.03301 units=km
New "Line.SBT_273356316" phases=3 bus1="NODE#420735566.1.2.4" bus2="NODE#450773138.1.2.4" linecode="25_3" length=0.03059 units=km
New "Line.SBT_272349394" phases=3 bus1="NODE#461571698.1.2.4" bus2="NODE#462892720.1.2.4" linecode="23_3" length=0.02758 units=km
New "Line.SBT_1625845973" phases=4 bus1="NODE#463239103.1.2.3.4" bus2="NODE#1946105963.1.2.3.4" linecode="52_4" length=0.03200 units=km
New "Line.SBT_274182847" phases=4 bus1="NODE#420710496.1.2.3.4" bus2="NODE#461995121.1.2.3.4" linecode="32_4" length=0.04390 units=km
New "Line.SBT_274512223" phases=3 bus1="NODE#464982775.1.2.4" bus2="NODE#462476146.1.2.4" linecode="29_3" length=0.03962 units=km
New "Line.SBT_271667598" phases=4 bus1="NODE#461450375.1.2.3.4" bus2="NODE#455138539.1.2.3.4" linecode="139_4" length=0.03981 units=km
New "Line.SBT_271910541" phases=3 bus1="NODE#461789120.3.1.4" bus2="NODE#461789121.3.1.4" linecode="821_3" length=0.03201 units=km
New "Line.SBT_273924969" phases=3 bus1="NODE#463571601.1.2.4" bus2="NODE#461018500.1.2.4" linecode="25_3" length=0.02765 units=km
New "Line.SBT_271667429" phases=3 bus1="NODE#461449528.1.2.4" bus2="NODE#461449529.1.2.4" linecode="285_3" length=0.03620 units=km
New "Line.SBT_271909532" phases=4 bus1="NODE#461668137.1.2.3.4" bus2="NODE#461668138.1.2.3.4" linecode="186_4" length=0.02818 units=km
New "Line.SBT_1625845984" phases=4 bus1="NODE#1946105785.1.2.3.4" bus2="NODE#461666861.1.2.3.4" linecode="52_4" length=0.01700 units=km
New "Line.SBT_273923179" phases=3 bus1="NODE#465892280.1.2.4" bus2="NODE#420661259.1.2.4" linecode="25_3" length=0.04005 units=km
New "Line.SBT_272575224" phases=4 bus1="NODE#462318234.1.2.3.4" bus2="NODE#463240368.1.2.3.4" linecode="1_4" length=0.03199 units=km
New "Line.SBT_274182402" phases=4 bus1="NODE#463777269.1.2.3.4" bus2="NODE#466578299.1.2.3.4" linecode="1_4" length=0.04205 units=km
New "Line.SBT_273057357" phases=3 bus1="NODE#463036591.1.2.4" bus2="NODE#462234027.1.2.4" linecode="821_3" length=0.02002 units=km
New "Line.SBT_271665318" phases=3 bus1="NODE#461262917.1.2.4" bus2="NODE#461262918.1.2.4" linecode="101_3" length=0.02647 units=km
New "Line.SBT_272145388" phases=3 bus1="NODE#460896508.1.2.4" bus2="NODE#462233378.1.2.4" linecode="101_3" length=0.01772 units=km
New "Line.SBT_272833142" phases=4 bus1="NODE#420685051.1.2.3.4" bus2="NODE#451006791.1.2.3.4" linecode="809_4" length=0.03139 units=km
New "Line.SBT_271667485" phases=4 bus1="NODE#461449808.1.2.3.4" bus2="NODE#461449809.1.2.3.4" linecode="315_4" length=0.03584 units=km
New "Line.SBT_273625658" phases=4 bus1="NODE#465684281.1.2.3.4" bus2="NODE#465684282.1.2.3.4" linecode="248_4" length=0.03764 units=km
New "Line.SBT_273622505" phases=3 bus1="NODE#465385110.1.2.4" bus2="NODE#463463044.1.2.4" linecode="202_3" length=0.01456 units=km
New "Line.SBT_273623007" phases=3 bus1="NODE#462686544.1.2.4" bus2="NODE#420258348.1.2.4" linecode="23_3" length=0.04355 units=km
New "Line.SBT_272350860" phases=4 bus1="NODE#463035083.1.2.3.4" bus2="NODE#461449528.1.2.3.4" linecode="315_4" length=0.00860 units=km
New "Line.SBT_274184150" phases=3 bus1="NODE#464614611.1.2.4" bus2="NODE#465892280.1.2.4" linecode="446_3" length=0.02972 units=km
New "Line.SBT_273057134" phases=4 bus1="NODE#461668243.1.2.3.4" bus2="NODE#462683701.1.2.3.4" linecode="1_4" length=0.02973 units=km
New "Line.SBT_271335123" phases=4 bus1="NODE#460625322.1.2.3.4" bus2="NODE#460625323.1.2.3.4" linecode="281_4" length=0.03801 units=km
New "Line.SBT_273925218" phases=3 bus1="NODE#463676282.1.2.4" bus2="NODE#461572162.1.2.4" linecode="202_3" length=0.03220 units=km
New "Line.SBT_274182215" phases=4 bus1="NODE#463141650.1.2.3.4" bus2="NODE#464494956.1.2.3.4" linecode="248_4" length=0.03710 units=km
New "Line.SBT_273359608" phases=4 bus1="NODE#462318424.1.2.3.4" bus2="NODE#465277238.1.2.3.4" linecode="946_4" length=0.02506 units=km
New "Line.SBT_271337003" phases=3 bus1="NODE#420661550.1.2.4" bus2="NODE#461016891.1.2.4" linecode="32_3" length=0.03757 units=km
New "Line.SBT_272575339" phases=3 bus1="NODE#463138195.1.2.4" bus2="NODE#463240943.1.2.4" linecode="19_3" length=0.03039 units=km
New "Line.SBT_271335603" phases=4 bus1="NODE#460795190.1.2.3.4" bus2="NODE#460795191.1.2.3.4" linecode="32_4" length=0.02594 units=km
New "Line.SBT_952014279" phases=4 bus1="NODE#1214420879.1.2.3.4" bus2="NODE#1214420757.1.2.3.4" linecode="52_4" length=0.01000 units=km
New "Line.SBT_2384436779" phases=4 bus1="NODE#2566408094.1.2.3.4" bus2="NODE#2566408151.1.2.3.4" linecode="1_4" length=0.01500 units=km
New "Line.SBT_274513598" phases=3 bus1="NODE#1981522144.1.2.4" bus2="NODE#1981522236.1.2.4" linecode="23_3" length=0.02822 units=km
New "Line.SBT_272833198" phases=4 bus1="NODE#461571248.1.2.3.4" bus2="NODE#463881850.1.2.3.4" linecode="1_4" length=0.02924 units=km
New "Line.SBT_273622637" phases=4 bus1="NODE#420452403.1.2.3.4" bus2="NODE#461447621.1.2.3.4" linecode="1_4" length=0.01486 units=km
New "Line.SBT_273925021" phases=3 bus1="NODE#464613481.1.2.4" bus2="NODE#466107603.1.2.4" linecode="19_3" length=0.03000 units=km
New "Line.SBT_271667816" phases=4 bus1="NODE#420712269.1.2.3.4" bus2="NODE#461571698.1.2.3.4" linecode="191_4" length=0.03818 units=km
New "Line.SBT_271335121" phases=4 bus1="NODE#460625312.1.2.3.4" bus2="NODE#460625313.1.2.3.4" linecode="1_4" length=0.03323 units=km
New "Line.SBT_320037263" phases=3 bus1="NODE#511972378.1.2.4" bus2="NODE#499845754.1.2.4" linecode="50_3" length=0.00412 units=km
New "Line.SBT_274183548" phases=3 bus1="NODE#462476147.1.2.4" bus2="NODE#461898100.1.2.4" linecode="29_3" length=0.03962 units=km
New "Line.SBT_273624012" phases=3 bus1="NODE#462587077.1.2.4" bus2="NODE#451004282.1.2.4" linecode="821_3" length=0.03969 units=km
New "Line.SBT_271667692" phases=4 bus1="NODE#461571077.1.2.3.4" bus2="NODE#420685045.1.2.3.4" linecode="13_4" length=0.02256 units=km
New "Line.SBT_2181661283" phases=4 bus1="NODE#2488240161.1.2.3.4" bus2="NODE#2488240106.1.2.3.4" linecode="52_4" length=0.03700 units=km
New "Line.SBT_273057536" phases=3 bus1="NODE#464495687.1.2.4" bus2="NODE#451006797.1.2.4" linecode="821_3" length=0.02906 units=km
New "Line.SBT_274182330" phases=4 bus1="NODE#466578299.1.2.3.4" bus2="NODE#466468247.1.2.3.4" linecode="32_4" length=0.03584 units=km
New "Line.SBT_272145518" phases=3 bus1="NODE#462234027.1.2.4" bus2="NODE#462234028.1.2.4" linecode="821_3" length=0.02517 units=km
New "Line.SBT_272349477" phases=3 bus1="NODE#462232518.1.2.4" bus2="NODE#462893137.1.2.4" linecode="274_3" length=0.03478 units=km
New "Line.SBT_272576096" phases=4 bus1="NODE#463334903.1.2.3.4" bus2="NODE#463334904.1.2.3.4" linecode="1_4" length=0.03324 units=km
New "Line.SBT_271666892" phases=4 bus1="NODE#420685261.1.2.3.4" bus2="NODE#461446842.1.2.3.4" linecode="1_4" length=0.02420 units=km
New "Line.SBT_274183164" phases=4 bus1="NODE#461571738.1.2.3.4" bus2="NODE#452470978.1.2.3.4" linecode="2_4" length=0.03401 units=km
New "Line.SBT_272347988" phases=3 bus1="NODE#420685435.1.2.4" bus2="NODE#462786926.1.2.4" linecode="32_3" length=0.01835 units=km
New "Line.SBT_271913237" phases=4 bus1="NODE#462232002.1.2.3.4" bus2="NODE#462232003.1.2.3.4" linecode="101_4" length=0.03361 units=km
New "Line.SBT_273623144" phases=3 bus1="NODE#420710727.1.2.4" bus2="NODE#465204551.1.2.4" linecode="274_3" length=0.03995 units=km
New "Line.SBT_271667632" phases=3 bus1="NODE#452731664.1.2.4" bus2="NODE#452372294.1.2.4" linecode="285_3" length=0.01923 units=km
New "Line.SBT_271912870" phases=4 bus1="NODE#420683497.1.2.3.4" bus2="NODE#462101348.1.2.3.4" linecode="191_4" length=0.03101 units=km
New "Line.SBT_271912509" phases=3 bus1="NODE#420661358.1.2.4" bus2="NODE#462099543.1.2.4" linecode="23_3" length=0.02983 units=km
New "Line.SBT_272350719" phases=4 bus1="NODE#461385576.1.2.3.4" bus2="NODE#455138284.1.2.3.4" linecode="827_4" length=0.03106 units=km
New "Line.SBT_272351055" phases=3 bus1="NODE#420661556.1.2.4" bus2="NODE#461785395.1.2.4" linecode="202_3" length=0.03847 units=km
New "Line.SBT_271666947" phases=4 bus1="NODE#461447116.1.2.3.4" bus2="NODE#461447117.1.2.3.4" linecode="32_4" length=0.03101 units=km
New "Line.SBT_272350839" phases=3 bus1="NODE#463140414.1.2.4" bus2="NODE#420710523.1.2.4" linecode="101_3" length=0.02968 units=km
New "Line.SBT_271667728" phases=4 bus1="NODE#461571257.1.2.3.4" bus2="NODE#461571258.1.2.3.4" linecode="52_4" length=0.03100 units=km
New "Line.SBT_272145506" phases=4 bus1="NODE#462233967.1.2.3.4" bus2="NODE#462233968.1.2.3.4" linecode="1_4" length=0.03640 units=km
New "Line.SBT_272576775" phases=3 bus1="NODE#420711327.1.2.4" bus2="NODE#460900072.1.2.4" linecode="139_3" length=0.01300 units=km
New "Line.SBT_1625846029" phases=4 bus1="NODE#1946105962.1.2.3.4" bus2="NODE#461570923.1.2.3.4" linecode="52_4" length=0.03500 units=km
New "Line.SBT_273927039" phases=4 bus1="NODE#463774492.1.2.3.4" bus2="NODE#463240957.1.2.3.4" linecode="2_4" length=0.03220 units=km
New "Line.SBT_272146050" phases=4 bus1="NODE#461897355.1.2.3.4" bus2="NODE#462318274.1.2.3.4" linecode="32_4" length=0.03667 units=km
New "Line.SBT_273360222" phases=4 bus1="NODE#465280307.1.2.3.4" bus2="NODE#465280308.1.2.3.4" linecode="315_4" length=0.00721 units=km
New "Line.SBT_272350040" phases=3 bus1="NODE#456835064.1.2.4" bus2="NODE#462233172.1.2.4" linecode="285_3" length=0.03324 units=km
New "Line.SBT_1625846035" phases=4 bus1="NODE#463239102.1.2.3.4" bus2="NODE#463239103.1.2.3.4" linecode="52_4" length=0.03400 units=km
New "Line.SBT_272351053" phases=3 bus1="NODE#461993867.1.2.4" bus2="NODE#456835098.1.2.4" linecode="101_3" length=0.02213 units=km
New "Line.SBT_272350722" phases=4 bus1="NODE#420685156.1.2.3.4" bus2="NODE#463139830.1.2.3.4" linecode="337_4" length=0.02102 units=km
New "Line.SBT_273057088" phases=4 bus1="NODE#464404437.1.2.3.4" bus2="NODE#461571497.1.2.3.4" linecode="281_4" length=0.02973 units=km
New "Line.SBT_274183783" phases=4 bus1="NODE#420710496.1.2.3.4" bus2="NODE#466284530.1.2.3.4" linecode="32_4" length=0.03088 units=km
New "Line.SBT_272351239" phases=4 bus1="NODE#420685135.1.2.3.4" bus2="NODE#460625042.1.2.3.4" linecode="1_4" length=0.03511 units=km
New "Line.SBT_271665615" phases=3 bus1="NODE#420683413.1.2.4" bus2="NODE#461264403.1.2.4" linecode="19_3" length=0.04022 units=km
New "Line.SBT_271666662" phases=4 bus1="NODE#461385575.1.2.3.4" bus2="NODE#461385576.1.2.3.4" linecode="827_4" length=0.03014 units=km
New "Line.SBT_272145513" phases=4 bus1="NODE#420685513.1.2.3.4" bus2="NODE#1214420878.1.2.3.4" linecode="52_4" length=0.03300 units=km
New "Line.SBT_274512531" phases=3 bus1="NODE#464307724.1.2.4" bus2="NODE#467005525.1.2.4" linecode="248_3" length=0.03347 units=km
New "Line.SBT_272575045" phases=3 bus1="NODE#462685564.1.2.4" bus2="NODE#463239473.1.2.4" linecode="139_3" length=0.02907 units=km
New "Line.SBT_272575342" phases=4 bus1="NODE#463240957.1.2.3.4" bus2="NODE#463240958.1.2.3.4" linecode="2_4" length=0.01861 units=km
New "Line.SBT_273357933" phases=3 bus1="NODE#464613801.1.2.4" bus2="NODE#460796050.1.2.4" linecode="23_3" length=0.03605 units=km
New "Line.SBT_269279499" phases=4 bus1="NODE#455246640.1.2.3.4" bus2="NODE#1136793758.1.2.3.4" linecode="52_4" length=0.03600 units=km
New "Line.SBT_271909961" phases=4 bus1="NODE#461786220.1.2.3.4" bus2="NODE#451006792.1.2.3.4" linecode="116_4" length=0.03000 units=km
New "Line.SBT_274180551" phases=4 bus1="NODE#461140256.1.2.3.4" bus2="NODE#463570455.1.2.3.4" linecode="517_4" length=0.03623 units=km
New "Line.SBT_273623077" phases=4 bus1="NODE#420684850.1.2.3.4" bus2="NODE#461571247.1.2.3.4" linecode="1_4" length=0.02195 units=km
New "Line.SBT_272350983" phases=4 bus1="NODE#463141134.1.2.3.4" bus2="NODE#461785705.1.2.3.4" linecode="139_4" length=0.03443 units=km
New "Line.SBT_273357358" phases=3 bus1="NODE#461137391.1.2.4" bus2="NODE#464049882.1.2.4" linecode="25_3" length=0.02408 units=km
New "Line.SBT_271909886" phases=4 bus1="NODE#420711159.1.2.3.4" bus2="NODE#981556901.1.2.3.4" linecode="1_4" length=0.03125 units=km
New "Line.SBT_273623780" phases=4 bus1="NODE#465485955.1.2.3.4" bus2="NODE#461899370.1.2.3.4" linecode="315_4" length=0.02915 units=km
New "Line.SBT_272833393" phases=4 bus1="NODE#420661634.1.2.3.4" bus2="NODE#463882825.1.2.3.4" linecode="337_4" length=0.01921 units=km
New "Line.SBT_273923282" phases=4 bus1="NODE#464495807.1.2.3.4" bus2="NODE#457786023.1.2.3.4" linecode="52_4" length=0.02500 units=km
New "Line.SBT_271667835" phases=4 bus1="NODE#420711318.1.2.3.4" bus2="NODE#420713022.1.2.3.4" linecode="13_4" length=0.03080 units=km
New "Line.SBT_271665217" phases=4 bus1="NODE#420685030.1.2.3.4" bus2="NODE#461262413.1.2.3.4" linecode="248_4" length=0.03101 units=km
New "Line.SBT_274180654" phases=4 bus1="NODE#466363799.1.2.3.4" bus2="NODE#463675611.1.2.3.4" linecode="316_4" length=0.03275 units=km
New "Line.SBT_2181661240" phases=4 bus1="NODE#2488240106.1.2.3.4" bus2="NODE#2488240107.1.2.3.4" linecode="52_4" length=0.01000 units=km
New "Line.SBT_273927047" phases=4 bus1="NODE#420712227.1.2.3.4" bus2="NODE#463773626.1.2.3.4" linecode="191_4" length=0.03269 units=km
New "Line.SBT_271909424" phases=4 bus1="NODE#461667597.1.2.3.4" bus2="NODE#461667598.1.2.3.4" linecode="13_4" length=0.03395 units=km
New "Line.SBT_273622351" phases=3 bus1="NODE#420710805.1.2.4" bus2="NODE#420391542.1.2.4" linecode="23_3" length=0.03257 units=km
New "Line.SBT_273359916" phases=3 bus1="NODE#462098833.1.2.4" bus2="NODE#451004517.1.2.4" linecode="821_3" length=0.03498 units=km
New "Line.SBT_273923822" phases=4 bus1="NODE#456571963.1.2.3.4" bus2="NODE#463141134.1.2.3.4" linecode="139_4" length=0.03676 units=km
New "Line.SBT_273057073" phases=4 bus1="NODE#463141540.1.2.3.4" bus2="NODE#2486161605.1.2.3.4" linecode="13_4" length=0.04741 units=km
New "Line.SBT_320038968" phases=3 bus1="NODE#511989555.2.3.4" bus2="NODE#511976771.2.3.4" linecode="50_3" length=0.01360 units=km
New "Line.SBT_273057065" phases=4 bus1="NODE#420712911.1.2.3.4" bus2="NODE#462233097.1.2.3.4" linecode="191_4" length=0.03301 units=km
New "Line.SBT_273057024" phases=4 bus1="NODE#464404117.1.2.3.4" bus2="NODE#464404118.1.2.3.4" linecode="2_4" length=0.02640 units=km
New "Line.SBT_271667794" phases=3 bus1="NODE#461571292.2.3.4" bus2="NODE#456455533.2.3.4" linecode="446_3" length=0.03176 units=km
New "Line.SBT_273059402" phases=4 bus1="NODE#462233968.1.2.3.4" bus2="NODE#464750940.1.2.3.4" linecode="1_4" length=0.02842 units=km
New "Line.SBT_273623679" phases=4 bus1="NODE#462233053.1.2.3.4" bus2="NODE#465485451.1.2.3.4" linecode="2_4" length=0.02640 units=km
New "Line.SBT_272347747" phases=4 bus1="NODE#462686958.1.2.3.4" bus2="NODE#461900310.1.2.3.4" linecode="517_4" length=0.03182 units=km
New "Line.SBT_272350032" phases=4 bus1="NODE#455246645.1.2.3.4" bus2="NODE#463037616.1.2.3.4" linecode="232_4" length=0.01860 units=km
New "Line.SBT_320037256" phases=3 bus1="NODE#511972343.1.2.4" bus2="NODE#511970024.1.2.4" linecode="50_3" length=0.00447 units=km
New "Line.SBT_271666563" phases=3 bus1="NODE#461385080.1.2.4" bus2="NODE#461385081.1.2.4" linecode="2255_3" length=0.03178 units=km
New "Line.SBT_272576808" phases=4 bus1="NODE#452584222.1.2.3.4" bus2="NODE#463462990.1.2.3.4" linecode="191_4" length=0.03688 units=km
New "Line.SBT_274182597" phases=3 bus1="NODE#463777394.1.2.4" bus2="NODE#466579635.1.2.4" linecode="27_3" length=0.02954 units=km
New "Line.SBT_320037262" phases=3 bus1="NODE#511972373.1.2.4" bus2="NODE#511972374.1.2.4" linecode="50_3" length=0.00412 units=km
New "Line.SBT_273057325" phases=3 bus1="NODE#462889758.1.2.4" bus2="NODE#463036545.1.2.4" linecode="281_3" length=0.02100 units=km
New "Line.SBT_272146080" phases=4 bus1="NODE#462100492.1.2.3.4" bus2="NODE#462318424.1.2.3.4" linecode="946_4" length=0.02549 units=km
New "Line.SBT_273623913" phases=4 bus1="NODE#420661388.1.2.3.4" bus2="NODE#465083311.1.2.3.4" linecode="517_4" length=0.00860 units=km
New "Line.SBT_1625846033" phases=4 bus1="NODE#462683712.1.2.3.4" bus2="NODE#463239102.1.2.3.4" linecode="52_4" length=0.03600 units=km
New "Line.SBT_273927132" phases=3 bus1="NODE#465485581.1.2.4" bus2="NODE#464750984.1.2.4" linecode="101_3" length=0.03969 units=km
New "Line.SBT_272348379" phases=4 bus1="NODE#461900958.1.2.3.4" bus2="NODE#462788881.1.2.3.4" linecode="946_4" length=0.03257 units=km
New "Line.SBT_274182290" phases=3 bus1="NODE#463676282.1.2.4" bus2="NODE#466578100.1.2.4" linecode="23_3" length=0.02441 units=km
New "Line.SBT_273624062" phases=4 bus1="NODE#463037336.1.2.3.4" bus2="NODE#461385575.1.2.3.4" linecode="809_4" length=0.01216 units=km
New "Line.SBT_272148975" phases=3 bus1="NODE#462586246.1.2.4" bus2="NODE#461571917.1.2.4" linecode="248_3" length=0.02377 units=km
New "Line.SBT_274512178" phases=4 bus1="NODE#463038498.1.2.3.4" bus2="NODE#464049937.1.2.3.4" linecode="1_4" length=0.02863 units=km
New "Line.SBT_271911421" phases=3 bus1="NODE#461900872.1.2.4" bus2="NODE#461900873.1.2.4" linecode="248_3" length=0.02549 units=km
New "Line.SBT_274182339" phases=3 bus1="NODE#463240968.1.2.4" bus2="NODE#461385080.1.2.4" linecode="2255_3" length=0.02907 units=km
New "Line.SBT_274514941" phases=4 bus1="NODE#460898008.1.2.3.4" bus2="NODE#464189703.1.2.3.4" linecode="13_4" length=0.00806 units=km
New "Line.SBT_272349984" phases=4 bus1="NODE#463037376.1.2.3.4" bus2="NODE#463037375.1.2.3.4" linecode="32_4" length=0.03804 units=km
New "Line.SBT_272347177" phases=4 bus1="NODE#420661283.1.2.3.4" bus2="NODE#462684107.1.2.3.4" linecode="13_4" length=0.02914 units=km
New "Line.SBT_274180803" phases=4 bus1="NODE#420685087.1.2.3.4" bus2="NODE#466364545.1.2.3.4" linecode="34_4" length=0.02594 units=km
New "Line.SBT_272835981" phases=4 bus1="NODE#420686257.1.2.3.4" bus2="NODE#464187757.1.2.3.4" linecode="13_4" length=0.01963 units=km
New "Line.SBT_272833209" phases=3 bus1="NODE#463461409.1.2.4" bus2="NODE#460900042.1.2.4" linecode="285_3" length=0.03827 units=km
New "Line.SBT_274184218" phases=4 bus1="NODE#465485716.1.2.3.4" bus2="NODE#466802446.1.2.3.4" linecode="2_4" length=0.03544 units=km
New "Line.SBT_272350819" phases=4 bus1="NODE#463035083.1.2.3.4" bus2="NODE#463140315.1.2.3.4" linecode="315_4" length=0.01476 units=km
New "Line.SBT_320036797" phases=3 bus1="NODE#511970024.1.2.4" bus2="NODE#511970020.1.2.4" linecode="50_3" length=0.00762 units=km
New "Line.SBT_320036801" phases=3 bus1="NODE#511970044.1.2.4" bus2="NODE#511970045.1.2.4" linecode="50_3" length=0.03992 units=km
New "Line.SBT_320037257" phases=3 bus1="NODE#511970035.1.2.4" bus2="NODE#511970030.1.2.4" linecode="50_3" length=0.01616 units=km
New "Line.SBT_320038551" phases=3 bus1="NODE#511976772.2.3.4" bus2="NODE#466364010.2.3.4" linecode="50_3" length=0.01208 units=km
New "Line.SBT_320038546" phases=3 bus1="NODE#499845765.1.2.4" bus2="NODE#499845760.1.2.4" linecode="50_3" length=0.01726 units=km
New "Line.SBT_320037687" phases=3 bus1="NODE#499845760.1.2.4" bus2="NODE#511970045.1.2.4" linecode="50_3" length=0.02159 units=km
New "Line.SBT_320038129" phases=3 bus1="NODE#511970040.1.2.4" bus2="NODE#499845754.1.2.4" linecode="50_3" length=0.02470 units=km
New "Line.SBT_320037686" phases=3 bus1="NODE#511970045.1.2.4" bus2="NODE#462476197.1.2.4" linecode="50_3" length=0.01170 units=km
New "Line.SBT_320039410" phases=3 bus1="NODE#511976732.1.2.4" bus2="NODE#511970035.1.2.4" linecode="50_3" length=0.01393 units=km
New "Line.SBT_272347773" phases=4 bus1="NODE#461992041.1.2.3.4" bus2="NODE#462785850.1.2.3.4" linecode="1_4" length=0.03700 units=km
New "Line.SBT_274512777" phases=4 bus1="NODE#461447962.1.2.3.4" bus2="NODE#464498841.1.2.3.4" linecode="32_4" length=0.03733 units=km
New "Line.SBT_271337014" phases=3 bus1="NODE#461016945.1.2.4" bus2="NODE#461016946.1.2.4" linecode="29_3" length=0.02580 units=km
New "Line.SBT_272350290" phases=4 bus1="NODE#463038907.1.2.3.4" bus2="NODE#463038908.1.2.3.4" linecode="946_4" length=0.03352 units=km
New "Line.SBT_272577047" phases=3 bus1="NODE#420683185.1.2.4" bus2="NODE#461264397.1.2.4" linecode="485_3" length=0.04517 units=km
New "Line.SBT_274183794" phases=4 bus1="NODE#464614086.1.2.3.4" bus2="NODE#463776823.1.2.3.4" linecode="101_4" length=0.03944 units=km
New "Line.SBT_272348802" phases=3 bus1="NODE#462889757.1.2.4" bus2="NODE#462889758.1.2.4" linecode="139_3" length=0.02508 units=km
New "Line.SBT_273625646" phases=4 bus1="NODE#465484701.1.2.3.4" bus2="NODE#460897202.1.2.3.4" linecode="2_4" length=0.02656 units=km
New "Line.SBT_273057100" phases=4 bus1="NODE#420661274.1.2.3.4" bus2="NODE#461995171.1.2.3.4" linecode="2_4" length=0.01280 units=km
New "Line.SBT_273623822" phases=4 bus1="NODE#462790081.1.2.3.4" bus2="NODE#420712887.1.2.3.4" linecode="1_4" length=0.03047 units=km
New "Line.SBT_2181661358" phases=4 bus1="NODE#2488240298.1.2.3.4" bus2="NODE#2488240242.1.2.3.4" linecode="52_4" length=0.03700 units=km
New "Line.SBT_272145347" phases=3 bus1="NODE#462233172.1.2.4" bus2="NODE#420661340.1.2.4" linecode="285_3" length=0.02789 units=km
New "Line.SBT_272576882" phases=3 bus1="NODE#463463359.1.2.4" bus2="NODE#463463360.1.2.4" linecode="25_3" length=0.02332 units=km
New "Line.SBT_272574560" phases=4 bus1="NODE#463237047.1.2.3.4" bus2="NODE#463237048.1.2.3.4" linecode="1_4" length=0.04060 units=km
New "Line.SBT_273057111" phases=4 bus1="NODE#464404552.1.2.3.4" bus2="NODE#462232927.1.2.3.4" linecode="1_4" length=0.03625 units=km
New "Line.SBT_272145725" phases=4 bus1="NODE#420711159.1.2.3.4" bus2="NODE#462235063.1.2.3.4" linecode="1_4" length=0.00854 units=km
New "Line.SBT_271667762" phases=4 bus1="NODE#461571427.1.2.3.4" bus2="NODE#461571428.1.2.3.4" linecode="32_4" length=0.02608 units=km
New "Line.SBT_274182315" phases=4 bus1="NODE#463569806.1.2.3.4" bus2="NODE#466107587.1.2.3.4" linecode="1_4" length=0.03384 units=km
New "Line.SBT_273057740" phases=4 bus1="NODE#464497871.1.2.3.4" bus2="NODE#460624782.1.2.3.4" linecode="248_4" length=0.03848 units=km
New "Line.SBT_274183605" phases=4 bus1="NODE#464185847.1.2.3.4" bus2="NODE#456694541.1.2.3.4" linecode="248_4" length=0.04163 units=km
New "Line.SBT_274512584" phases=4 bus1="NODE#420712971.1.2.3.4" bus2="NODE#463774771.1.2.3.4" linecode="34_4" length=0.03505 units=km
New "Line.SBT_273357567" phases=4 bus1="NODE#420683314.1.2.3.4" bus2="NODE#456571084.1.2.3.4" linecode="191_4" length=0.04318 units=km
New "Line.SBT_274511379" phases=4 bus1="NODE#463880900.1.2.3.4" bus2="NODE#464404552.1.2.3.4" linecode="1_4" length=0.03041 units=km
New "Line.SBT_274514500" phases=4 bus1="NODE#465277238.1.2.3.4" bus2="NODE#461572172.1.2.3.4" linecode="946_4" length=0.02506 units=km
New "Line.SBT_271909419" phases=4 bus1="NODE#461667572.1.2.3.4" bus2="NODE#461667573.1.2.3.4" linecode="1_4" length=0.02906 units=km
New "Line.SBT_274183337" phases=4 bus1="NODE#463881320.1.2.3.4" bus2="NODE#420713007.1.2.3.4" linecode="274_4" length=0.03584 units=km
New "Line.SBT_271667691" phases=4 bus1="NODE#461571072.1.2.3.4" bus2="NODE#461571073.1.2.3.4" linecode="13_4" length=0.03452 units=km
New "Line.SBT_274184058" phases=4 bus1="NODE#463463000.1.2.3.4" bus2="NODE#452857181.1.2.3.4" linecode="32_4" length=0.02637 units=km
New "Line.SBT_271911380" phases=3 bus1="NODE#461262443.1.2.4" bus2="NODE#461789435.1.2.4" linecode="25_3" length=0.02529 units=km
New "Line.SBT_273623788" phases=3 bus1="NODE#465083382.1.2.4" bus2="NODE#460795175.1.2.4" linecode="19_3" length=0.02823 units=km
New "Line.SBT_274513512" phases=3 bus1="NODE#461900763.1.2.4" bus2="NODE#461137390.1.2.4" linecode="25_3" length=0.03401 units=km
New "Line.SBT_272146042" phases=4 bus1="NODE#462233292.1.2.3.4" bus2="NODE#462318234.1.2.3.4" linecode="1_4" length=0.01140 units=km
New "Line.SBT_271910455" phases=4 bus1="NODE#420259710.1.2.3.4" bus2="NODE#420710337.1.2.3.4" linecode="32_4" length=0.02158 units=km
New "Line.SBT_2179140624" phases=4 bus1="NODE#2486161657.1.2.3.4" bus2="NODE#2486161670.1.2.3.4" linecode="52_4" length=0.03300 units=km
New "Line.SBT_274184651" phases=3 bus1="NODE#460898008.1.2.4" bus2="NODE#463461789.1.2.4" linecode="25_3" length=0.03383 units=km
New "Line.SBT_272145542" phases=4 bus1="NODE#420686326.1.2.3.4" bus2="NODE#461017595.1.2.3.4" linecode="56_4" length=0.02720 units=km
New "Line.SBT_272832893" phases=4 bus1="NODE#462318274.1.2.3.4" bus2="NODE#463777269.1.2.3.4" linecode="1_4" length=0.03230 units=km
New "Line.SBT_272832961" phases=4 bus1="NODE#420661187.1.2.3.4" bus2="NODE#461667977.1.2.3.4" linecode="1_4" length=0.03676 units=km
New "Line.SBT_320039415" phases=3 bus1="NODE#512004692.2.3.4" bus2="NODE#511976772.2.3.4" linecode="50_3" length=0.00583 units=km
New "Line.SBT_273623930" phases=4 bus1="NODE#460795711.1.2.3.4" bus2="NODE#465486706.1.2.3.4" linecode="1_4" length=0.03423 units=km
New "Line.SBT_274184067" phases=4 bus1="NODE#464750940.1.2.3.4" bus2="NODE#466801689.1.2.3.4" linecode="1_4" length=0.03282 units=km
New "Line.SBT_273923185" phases=3 bus1="NODE#463570161.1.2.4" bus2="NODE#460624707.1.2.4" linecode="23_3" length=0.03052 units=km
New "Line.SBT_272577180" phases=3 bus1="NODE#463567905.1.2.4" bus2="NODE#463567906.1.2.4" linecode="25_3" length=0.03736 units=km
New "Line.SBT_272146090" phases=4 bus1="NODE#462318473.1.2.3.4" bus2="NODE#462318474.1.2.3.4" linecode="10_4" length=0.04438 units=km
New "Line.SBT_274183394" phases=4 bus1="NODE#461667623.1.2.3.4" bus2="NODE#463775281.1.2.3.4" linecode="191_4" length=0.03640 units=km
New "Line.SBT_272145361" phases=4 bus1="NODE#420683191.1.2.3.4" bus2="NODE#462233243.1.2.3.4" linecode="1_4" length=0.03719 units=km
New "Line.SBT_272832494" phases=4 bus1="NODE#461571348.1.2.3.4" bus2="NODE#451004217.1.2.3.4" linecode="2_4" length=0.02745 units=km
New "Line.SBT_273623933" phases=4 bus1="NODE#420661388.1.2.3.4" bus2="NODE#465486721.1.2.3.4" linecode="34_4" length=0.02663 units=km
New "Line.SBT_271912973" phases=4 bus1="NODE#462101862.1.2.3.4" bus2="NODE#462101863.1.2.3.4" linecode="13_4" length=0.03621 units=km